$ MSC.Nastran input file created on December  20, 2019 at 10:51:14 by
$ Patran 2019
$ Direct Text Input for Nastran System Cell Section
$ Direct Text Input for File Management Section
$ Direct Text Input for Executive Control
$ Normal Modes Analysis, Database
SOL 103
CEND
$ Direct Text Input for Global Case Control Data
TITLE = MSC.Nastran job created on 19-Dec-19 at 15:19:25
ECHO = NONE
$ Using Nastran default values for RESVEC
SUBCASE 1
   SUBTITLE=Default
$ Direct Text Input for this Subcase
   METHOD = 1
   VECTOR(SORT1,REAL)=ALL
   STRESS(SORT1,REAL,VONMISES,BILIN)=ALL
BEGIN BULK
$ Direct Text Input for Bulk Data
MDLPRM   HDF5    0
PARAM    POST    1
PARAM   PRTMAXIM YES
EIGRL    1       0.     100.     11      0                       MASS
$ Elements and Element Properties for region : p1
PBARL    1       1               BAR
        15.02   8.25
$ Pset: "p1" will be imported as: "pbarl.1"
CBAR     1       1       1       2       0.      0.     1.
CBAR     2       1       2       3       0.      0.     1.
CBAR     3       1       3       4       0.      0.     1.
CBAR     4       1       4       5       0.      0.     1.
CBAR     5       1       5       6       0.      0.     1.
CBAR     6       1       6       7       0.      0.     1.
CBAR     7       1       7       8       0.      0.     1.
CBAR     8       1       8       9       0.      0.     1.
CBAR     9       1       9       10      0.      0.     1.
CBAR     10      1       10      11      0.      0.     1.
CBAR     11      1       11      12      0.      0.     1.
CBAR     12      1       12      13      0.      0.     1.
CBAR     13      1       13      14      0.      0.     1.
CBAR     14      1       14      15      0.      0.     1.
CBAR     15      1       15      16      0.      0.     1.
CBAR     16      1       16      17      0.      0.     1.
CBAR     17      1       17      18      0.      0.     1.
CBAR     18      1       18      19      0.      0.     1.
$ Elements and Element Properties for region : p2
PBAR     2       2      167.443 1310.19 4166.52 3404.55
        4.845   8.64    -4.845  8.64    -4.845  -8.64   4.845   -8.64
        .833333 .833333  0.
$ Pset: "p2" will be imported as: "pbar.2"
CBAR     19      2       19      20      0.      0.     1.
CBAR     20      2       20      21      0.      0.     1.
CBAR     21      2       21      22      0.      0.     1.
CBAR     22      2       22      23      0.      0.     1.
CBAR     23      2       23      24      0.      0.     1.
CBAR     24      2       24      25      0.      0.     1.
CBAR     25      2       25      26      0.      0.     1.
CBAR     26      2       26      27      0.      0.     1.
CBAR     27      2       27      28      0.      0.     1.
CBAR     28      2       28      29      0.      0.     1.
CBAR     29      2       29      30      0.      0.     1.
CBAR     30      2       30      31      0.      0.     1.
$ Elements and Element Properties for region : p3
PBAR     3       3      194.24  1825.6  5414.83 4656.44
        5.31    9.145   -5.31   9.145   -5.31   -9.145  5.31    -9.145
        .833333 .833333  0.
$ Pset: "p3" will be imported as: "pbar.3"
CBAR     31      3       31      32      0.      0.     1.
CBAR     32      3       32      33      0.      0.     1.
CBAR     33      3       33      34      0.      0.     1.
CBAR     34      3       34      35      0.      0.     1.
CBAR     35      3       35      36      0.      0.     1.
CBAR     36      3       36      37      0.      0.     1.
CBAR     37      3       37      38      0.      0.     1.
CBAR     38      3       38      39      0.      0.     1.
CBAR     39      3       39      40      0.      0.     1.
CBAR     40      3       40      41      0.      0.     1.
CBAR     41      3       41      42      0.      0.     1.
CBAR     42      3       42      43      0.      0.     1.
$ Elements and Element Properties for region : p4
PBAR     4       4      195.398 1850.35 5470.96 4715.49
        5.33    9.165   -5.33   9.165   -5.33   -9.165  5.33    -9.165
        .833333 .833333  0.
$ Pset: "p4" will be imported as: "pbar.4"
CBAR     43      4       43      44      0.      0.     1.
CBAR     44      4       44      45      0.      0.     1.
CBAR     45      4       45      46      0.      0.     1.
CBAR     46      4       46      47      0.      0.     1.
CBAR     47      4       47      48      0.      0.     1.
CBAR     48      4       48      49      0.      0.     1.
CBAR     49      4       49      50      0.      0.     1.
CBAR     50      4       50      51      0.      0.     1.
CBAR     51      4       51      52      0.      0.     1.
CBAR     52      4       52      53      0.      0.     1.
CBAR     53      4       53      54      0.      0.     1.
CBAR     54      4       54      55      0.      0.     1.
$ Elements and Element Properties for region : p5
PBAR     5       5      191.061 1772.13 5221.88 4511.94
        5.275   9.055   -5.275  9.055   -5.275  -9.055  5.275   -9.055
        .833333 .833333  0.
$ Pset: "p5" will be imported as: "pbar.5"
CBAR     55      5       55      56      0.      0.     1.
CBAR     56      5       56      57      0.      0.     1.
CBAR     57      5       57      58      0.      0.     1.
CBAR     58      5       58      59      0.      0.     1.
CBAR     59      5       59      60      0.      0.     1.
CBAR     60      5       60      61      0.      0.     1.
CBAR     61      5       61      62      0.      0.     1.
CBAR     62      5       62      63      0.      0.     1.
CBAR     63      5       63      64      0.      0.     1.
CBAR     64      5       64      65      0.      0.     1.
CBAR     65      5       65      66      0.      0.     1.
CBAR     66      5       66      67      0.      0.     1.
$ Elements and Element Properties for region : p6
PBAR     6       6      169.445 1367.22 4187.1  3517.57
        4.92    8.61    -4.92   8.61    -4.92   -8.61   4.92    -8.61
        .833333 .833333  0.
$ Pset: "p6" will be imported as: "pbar.6"
CBAR     67      6       67      68      0.      0.     1.
CBAR     68      6       68      69      0.      0.     1.
CBAR     69      6       69      70      0.      0.     1.
CBAR     70      6       70      71      0.      0.     1.
CBAR     71      6       71      72      0.      0.     1.
CBAR     72      6       72      73      0.      0.     1.
CBAR     73      6       73      74      0.      0.     1.
CBAR     74      6       74      75      0.      0.     1.
CBAR     75      6       75      76      0.      0.     1.
CBAR     76      6       76      77      0.      0.     1.
CBAR     77      6       77      78      0.      0.     1.
CBAR     78      6       78      79      0.      0.     1.
$ Elements and Element Properties for region : p7
PBAR     7       7      120.955 801.998 1853.37 1899.27
        4.46    6.78    -4.46   6.78    -4.46   -6.78   4.46    -6.78
        .833333 .833333  0.
$ Pset: "p7" will be imported as: "pbar.7"
CBAR     79      7       79      80      0.      0.     1.
CBAR     80      7       80      81      0.      0.     1.
CBAR     81      7       81      82      0.      0.     1.
CBAR     82      7       82      83      0.      0.     1.
CBAR     83      7       83      84      0.      0.     1.
CBAR     84      7       84      85      0.      0.     1.
CBAR     85      7       85      86      0.      0.     1.
CBAR     86      7       86      87      0.      0.     1.
CBAR     87      7       87      88      0.      0.     1.
CBAR     88      7       88      89      0.      0.     1.
CBAR     89      7       89      90      0.      0.     1.
CBAR     90      7       90      91      0.      0.     1.
CBAR     91      7       91      92      0.      0.     1.
CBAR     92      7       92      93      0.      0.     1.
CBAR     93      7       93      94      0.      0.     1.
CBAR     94      7       94      95      0.      0.     1.
CBAR     95      7       95      96      0.      0.     1.
CBAR     96      7       96      97      0.      0.     1.
$ Referenced Material Records
$ Material Record : m1
$ Description of Material : Date: 19-Dec-19           Time: 15:34:41
MAT1     1      2.06+11         .3      2950.
$ Material Record : m2
$ Description of Material : Date: 19-Dec-19           Time: 15:34:41
MAT1     2      2.06+11         .3      4580.
$ Material Record : m3
$ Description of Material : Date: 19-Dec-19           Time: 15:34:41
MAT1     3      2.06+11         .3      3280.
$ Material Record : m4
$ Description of Material : Date: 19-Dec-19           Time: 15:34:41
MAT1     4      2.06+11         .3      5320.
$ Material Record : m5
$ Description of Material : Date: 19-Dec-19           Time: 15:34:41
MAT1     5      2.06+11         .3      3830.
$ Material Record : m6
$ Description of Material : Date: 19-Dec-19           Time: 15:34:41
MAT1     6      2.06+11         .3      6110.
$ Material Record : m7
$ Description of Material : Date: 19-Dec-19           Time: 15:34:41
MAT1     7      2.06+11         .3      3660.
$ Nodes of the Entire Model
GRID     1               0.      0.     16.
GRID*    2                              3.98944449424744 0.
*       16.
GRID*    3                              7.97888898849487 0.
*       16.
GRID*    4                              11.9683332443237 0.
*       16.
GRID*    5                              15.9577779769898 0.
*       16.
GRID*    6                              19.9472236633301 0.
*       16.
GRID*    7                              23.9366664886475 0.
*       16.
GRID*    8                              27.9261112213135 0.
*       16.
GRID*    9                              31.9155540466309 0.
*       16.
GRID*    10                             35.9049987792969 0.
*       16.
GRID*    11                             39.8944396972656 0.
*       16.
GRID*    12                             43.8838882446289 0.
*       16.
GRID*    13                             47.8733329772949 0.
*       16.
GRID*    14                             51.8627738952637 0.
*       16.
GRID*    15                             55.8522262573242 0.
*       16.
GRID*    16                             59.841667175293  0.
*       16.
GRID*    17                             63.8311157226563 0.
*       16.
GRID*    18                             67.820556640625  0.
*       16.
GRID*    19                             71.8099975585938 0.
*       16.
GRID*    20                             75.8008346557617 0.
*       16.
GRID*    21                             79.7916641235352 0.
*       16.
$ ... 36 like lines cut
GRID     40             155.625  0.     16.
GRID*    41                             159.616668701172 0.
*       16.
GRID*    42                             163.608337402344 0.
*       16.
GRID*    43                             167.600006103516 0.
*       16.
GRID*    44                             171.583343505859 0.
*       16.
GRID*    45                             175.566665649414 0.
*       16.
GRID*    46                             179.550003051758 0.
*       16.
GRID*    47                             183.533340454102 0.
*       16.
GRID*    48                             187.516662597656 0.
*       16.
GRID     49             191.5    0.     16.
GRID*    50                             195.483337402344 0.
*       16.
GRID*    51                             199.466659545898 0.
*       16.
GRID*    52                             203.449996948242 0.
*       16.
GRID*    53                             207.433319091797 0.
*       16.
GRID*    54                             211.416656494141 0.
*       16.
GRID*    55                             215.399993896484 0.
*       16.
GRID*    56                             219.391662597656 0.
*       16.
GRID*    57                             223.383331298828 0.
*       16.
GRID*    58                             227.374984741211 0.
*       16.
GRID*    59                             231.366653442383 0.
*       16.
GRID*    60                             235.358322143555 0.
*       16.
GRID*    61                             239.349990844727 0.
*       16.
GRID*    62                             243.341659545898 0.
*       16.
GRID*    63                             247.33332824707  0.
*       16.
GRID*    64                             251.324996948242 0.
*       16.
GRID*    65                             255.316650390625 0.
*       16.
GRID*    66                             259.308319091797 0.
*       16.
GRID*    67                             263.299987792969 0.
*       16.
GRID*    68                             267.291656494141 0.
*       16.
GRID*    69                             271.283325195313 0.
*       16.
GRID*    70                             275.274993896484 0.
*       16.
GRID*    71                             279.266662597656 0.
*       16.
GRID*    72                             283.258331298828 0.
*       16.
GRID     73             287.25   0.     16.
GRID*    74                             291.241668701172 0.
*       16.
GRID*    75                             295.233337402344 0.
*       16.
GRID*    76                             299.225006103516 0.
*       16.
GRID*    77                             303.216674804688 0.
*       16.
GRID*    78                             307.208343505859 0.
*       16.
GRID*    79                             311.200012207031 0.
*       16.
GRID*    80                             315.188903808594 0.
*       16.
GRID*    81                             319.177795410156 0.
*       16.
GRID*    82                             323.166687011719 0.
*       16.
GRID*    83                             327.155548095703 0.
*       16.
GRID*    84                             331.144439697266 0.
*       16.
GRID*    85                             335.133331298828 0.
*       16.
GRID*    86                             339.122222900391 0.
*       16.
GRID*    87                             343.111114501953 0.
*       16.
GRID*    88                             347.100006103516 0.
*       16.
GRID*    89                             351.088897705078 0.
*       16.
GRID*    90                             355.077789306641 0.
*       16.
GRID*    91                             359.066680908203 0.
*       16.
GRID*    92                             363.055572509766 0.
*       16.
GRID*    93                             367.044464111328 0.
*       16.
GRID*    94                             371.033325195313 0.
*       16.
GRID*    95                             375.022216796875 0.
*       16.
GRID*    96                             379.011108398438 0.
*       16.
GRID     97             383.     0.     16.
$ Loads for Load Case : Default
$ Referenced Coordinate Frames
ENDDATA 2b74ae01
