$ MSC.Nastran input file created on December  31, 2019 at 17:52:12 by
$ Patran 2019
$ Direct Text Input for Nastran System Cell Section
$ Direct Text Input for File Management Section
$ Direct Text Input for Executive Control
$ Normal Modes Analysis, Database
SOL 103
CEND
$ Direct Text Input for Global Case Control Data
TITLE = MSC.Nastran job created on 31-Dec-19 at 17:01:11
ECHO = NONE
$ Using Nastran default values for RESVEC
SUBCASE 1
   SUBTITLE=Default
$ Direct Text Input for this Subcase
   METHOD = 1
   SPC = 2
   VECTOR(SORT1,REAL)=ALL
   SPCFORCES(SORT1,REAL)=ALL
   STRESS(SORT1,REAL,VONMISES,BILIN)=ALL
BEGIN BULK
$ Direct Text Input for Bulk Data
MDLPRM   HDF5    0
PARAM   PRTMAXIM YES
EIGRL    1       0.     100.     7       0                       MASS
$ Elements and Element Properties for region : p1
PBARL    1       1               BAR
        9.58    8.131
$ Pset: "p1" will be imported as: "pbarl.1"
CBAR     1       1       1       2       0.      0.     1.
CBAR     2       1       2       3       0.      0.     1.
CBAR     3       1       3       4       0.      0.     1.
CBAR     4       1       4       5       0.      0.     1.
CBAR     5       1       5       6       0.      0.     1.
CBAR     6       1       6       7       0.      0.     1.
CBAR     7       1       7       8       0.      0.     1.
CBAR     8       1       8       9       0.      0.     1.
CBAR     9       1       9       10      0.      0.     1.
CBAR     10      1       10      11      0.      0.     1.
CBAR     11      1       11      12      0.      0.     1.
CBAR     12      1       12      13      0.      0.     1.
CBAR     13      1       13      14      0.      0.     1.
CBAR     14      1       14      15      0.      0.     1.
CBAR     15      1       15      16      0.      0.     1.
$ Elements and Element Properties for region : p2
PBARL    2       2               BAR
        10.052  8.532
$ Pset: "p2" will be imported as: "pbarl.2"
CBAR     16      2       16      17      0.      0.     1.
CBAR     17      2       17      18      0.      0.     1.
CBAR     18      2       18      19      0.      0.     1.
CBAR     19      2       19      20      0.      0.     1.
CBAR     20      2       20      21      0.      0.     1.
CBAR     21      2       21      22      0.      0.     1.
CBAR     22      2       22      23      0.      0.     1.
CBAR     23      2       23      24      0.      0.     1.
CBAR     24      2       24      25      0.      0.     1.
CBAR     25      2       25      26      0.      0.     1.
$ Elements and Element Properties for region : p3
PBARL    3       3               BAR
        10.527  8.934
$ Pset: "p3" will be imported as: "pbarl.3"
CBAR     26      3       26      27      0.      0.     1.
CBAR     27      3       27      28      0.      0.     1.
CBAR     28      3       28      29      0.      0.     1.
CBAR     29      3       29      30      0.      0.     1.
CBAR     30      3       30      31      0.      0.     1.
CBAR     31      3       31      32      0.      0.     1.
CBAR     32      3       32      33      0.      0.     1.
CBAR     33      3       33      34      0.      0.     1.
CBAR     34      3       34      35      0.      0.     1.
CBAR     35      3       35      36      0.      0.     1.
$ Elements and Element Properties for region : p4
PBARL    4       4               BAR
        10.96   9.302
$ Pset: "p4" will be imported as: "pbarl.4"
CBAR     36      4       36      37      0.      0.     1.
CBAR     37      4       37      38      0.      0.     1.
CBAR     38      4       38      39      0.      0.     1.
CBAR     39      4       39      40      0.      0.     1.
CBAR     40      4       40      41      0.      0.     1.
CBAR     41      4       41      42      0.      0.     1.
CBAR     42      4       42      43      0.      0.     1.
CBAR     43      4       43      44      0.      0.     1.
CBAR     44      4       44      45      0.      0.     1.
CBAR     45      4       45      46      0.      0.     1.
CBAR     46      4       46      47      0.      0.     1.
CBAR     47      4       47      48      0.      0.     1.
CBAR     48      4       48      49      0.      0.     1.
CBAR     49      4       49      50      0.      0.     1.
CBAR     50      4       50      51      0.      0.     1.
CBAR     51      4       51      52      0.      0.     1.
CBAR     52      4       52      53      0.      0.     1.
CBAR     53      4       53      54      0.      0.     1.
CBAR     54      4       54      55      0.      0.     1.
CBAR     55      4       55      56      0.      0.     1.
$ ... 19 like lines cut
$ Elements and Element Properties for region : p5
PBARL    5       5               BAR
        10.565  8.967
$ Pset: "p5" will be imported as: "pbarl.5"
CBAR     75      5       75      76      0.      0.     1.
CBAR     76      5       76      77      0.      0.     1.
CBAR     77      5       77      78      0.      0.     1.
CBAR     78      5       78      79      0.      0.     1.
CBAR     79      5       79      80      0.      0.     1.
CBAR     80      5       80      81      0.      0.     1.
CBAR     81      5       81      82      0.      0.     1.
CBAR     82      5       82      83      0.      0.     1.
CBAR     83      5       83      84      0.      0.     1.
CBAR     84      5       84      85      0.      0.     1.
$ Elements and Element Properties for region : p6
PBARL    6       6               BAR
        9.86    8.368
$ Pset: "p6" will be imported as: "pbarl.6"
CBAR     85      6       85      86      0.      0.     1.
CBAR     86      6       86      87      0.      0.     1.
CBAR     87      6       87      88      0.      0.     1.
CBAR     88      6       88      89      0.      0.     1.
CBAR     89      6       89      90      0.      0.     1.
CBAR     90      6       90      91      0.      0.     1.
CBAR     91      6       91      92      0.      0.     1.
CBAR     92      6       92      93      0.      0.     1.
CBAR     93      6       93      94      0.      0.     1.
CBAR     94      6       94      95      0.      0.     1.
CBAR     95      6       95      96      0.      0.     1.
CBAR     96      6       96      97      0.      0.     1.
CBAR     97      6       97      98      0.      0.     1.
CBAR     98      6       98      99      0.      0.     1.
CBAR     99      6       99      100     0.      0.     1.
$ Referenced Material Records
$ Material Record : m1
$ Description of Material : Date: 31-Dec-19           Time: 16:43:45
MAT1     1      2.06+11         .3      3844.
$ Material Record : m2
$ Description of Material : Date: 31-Dec-19           Time: 16:43:45
MAT1     2      2.06+11         .3      11360.
$ Material Record : m3
$ Description of Material : Date: 31-Dec-19           Time: 16:43:45
MAT1     3      2.06+11         .3      10590.
$ Material Record : m4
$ Description of Material : Date: 31-Dec-19           Time: 16:43:45
MAT1     4      2.06+11         .3      9240.
$ Material Record : m5
$ Description of Material : Date: 31-Dec-19           Time: 16:43:45
MAT1     5      2.06+11         .3      9866.
$ Material Record : m6
$ Description of Material : Date: 31-Dec-19           Time: 16:43:45
MAT1     6      2.06+11         .3      6969.
$ Nodes of the Entire Model
GRID     1               0.      0.     15.
GRID*    2                              2.95000004768372 0.
*       15.
GRID*    3                              5.90000009536743 0.
*       15.
GRID*    4                              8.85000038146973 0.
*       15.
GRID*    5                              11.8000001907349 0.
*       15.
GRID     6              14.75    0.     15.
GRID*    7                              17.7000007629395 0.
*       15.
GRID*    8                              20.6499996185303 0.
*       15.
GRID*    9                              23.6000003814697 0.
*       15.
GRID*    10                             26.5500011444092 0.
*       15.
GRID     11             29.5     0.     15.
GRID*    12                             32.4500007629395 0.
*       15.
GRID*    13                             35.4000015258789 0.
*       15.
GRID*    14                             38.3499984741211 0.
*       15.
GRID*    15                             41.2999992370606 0.
*       15.
GRID     16             44.25    0.     15.
GRID*    17                             47.2000007629395 0.
*       15.
GRID*    18                             50.1500015258789 0.
*       15.
GRID*    19                             53.0999984741211 0.
*       15.
GRID*    20                             56.0499992370606 0.
*       15.
GRID     21             59.      0.     15.
GRID*    22                             61.9500007629395 0.
*       15.
GRID*    23                             64.9000015258789 0.
*       15.
GRID*    24                             67.8499984741211 0.
*       15.
GRID*    25                             70.8000030517578 0.
*       15.
GRID     26             73.75    0.     15.
GRID*    27                             76.6999969482422 0.
*       15.
GRID*    28                             79.6500015258789 0.
*       15.
GRID*    29                             82.5999984741211 0.
*       15.
GRID*    30                             85.5500030517578 0.
*       15.
GRID     31             88.5     0.     15.
GRID*    32                             91.4499969482422 0.
*       15.
GRID*    33                             94.4000015258789 0.
*       15.
GRID*    34                             97.3499984741211 0.
*       15.
GRID*    35                             100.299995422363 0.
*       15.
GRID     36             103.25   0.     15.
GRID*    37                             106.27564239502  0.
*       15.
GRID*    38                             109.301284790039 0.
*       15.
GRID*    39                             112.326919555664 0.
*       15.
GRID*    40                             115.352561950684 0.
*       15.
GRID*    41                             118.378204345703 0.
*       15.
GRID*    42                             121.403846740723 0.
*       15.
GRID*    43                             124.429489135742 0.
*       15.
GRID*    44                             127.455123901367 0.
*       15.
GRID*    45                             130.480773925781 0.
*       15.
GRID*    46                             133.506408691406 0.
*       15.
GRID*    47                             136.532043457031 0.
*       15.
GRID*    48                             139.557693481445 0.
*       15.
GRID*    49                             142.58332824707  0.
*       15.
GRID*    50                             145.608963012695 0.
*       15.
GRID*    51                             148.634613037109 0.
*       15.
GRID*    52                             151.660247802734 0.
*       15.
GRID*    53                             154.685882568359 0.
*       15.
GRID*    54                             157.711532592773 0.
*       15.
GRID*    55                             160.737167358398 0.
*       15.
GRID*    56                             163.762817382813 0.
*       15.
$ ... 36 like lines cut
GRID     75             221.25   0.     15.
GRID*    76                             224.199996948242 0.
*       15.
GRID*    77                             227.149993896484 0.
*       15.
GRID*    78                             230.100006103516 0.
*       15.
GRID*    79                             233.050003051758 0.
*       15.
GRID     80             236.     0.     15.
GRID*    81                             238.949996948242 0.
*       15.
GRID*    82                             241.899993896484 0.
*       15.
GRID*    83                             244.850006103516 0.
*       15.
GRID*    84                             247.800003051758 0.
*       15.
GRID     85             250.75   0.     15.
GRID*    86                             253.699996948242 0.
*       15.
GRID*    87                             256.649993896484 0.
*       15.
GRID*    88                             259.600006103516 0.
*       15.
GRID*    89                             262.549987792969 0.
*       15.
GRID     90             265.5    0.     15.
GRID*    91                             268.450012207031 0.
*       15.
GRID*    92                             271.399993896484 0.
*       15.
GRID*    93                             274.350006103516 0.
*       15.
GRID*    94                             277.299987792969 0.
*       15.
GRID     95             280.25   0.     15.
GRID*    96                             283.200012207031 0.
*       15.
GRID*    97                             286.149993896484 0.
*       15.
GRID*    98                             289.100006103516 0.
*       15.
GRID*    99                             292.049987792969 0.
*       15.
GRID     100            295.     0.     15.
$ Loads for Load Case : Default
SPCADD   2       1
$ Displacement Constraints of Load Set : bc1
SPC1     1       2       1       THRU    100
$ Referenced Coordinate Frames
ENDDATA 76959e28
