$ NASTRAN input file created by the MSC MSC.Nastran input file
$ translator ( MSC.Patran 13.0.068 ) on January   20, 2015 at 20:34:44.
$ Direct Text Input for Nastran System Cell Section
$ Direct Text Input for File Management Section
$ Linear Static Analysis, Database
SOL 101
$ Direct Text Input for Executive Control
CEND
SEALL = ALL
SUPER = ALL
TITLE = MSC.Nastran job created on 20-Jan-15 at 20:33:17
ECHO = NONE
$ Direct Text Input for Global Case Control Data
SUBCASE 1
$ Subcase name : Default
   SUBTITLE=Default
   DISPLACEMENT(SORT1,REAL)=ALL
   SPCFORCES(SORT1,REAL)=ALL
   STRESS(SORT1,REAL,VONMISES,BILIN)=ALL
BEGIN BULK
PARAM    POST    0
PARAM    AUTOSPC YES
PARAM   PRTMAXIM YES
$ Direct Text Input for Bulk Data
$ Elements and Element Properties for region : s1
PSHELL   1       1      .1       1               1
$ Pset: "s1" will be imported as: "pshell.1"
CQUAD4   1       1       1       2       12      10
CQUAD4   2       1       2       3       13      12
CQUAD4   3       1       3       4       14      13
CQUAD4   4       1       4       5       11      14
CQUAD4   5       1       5       6       9       11
CQUAD4   6       1       6       7       8       9
CQUAD4   7       1       1       10      18      16
CQUAD4   8       1       10      12      20      18
CQUAD4   9       1       12      13      22      20
CQUAD4   10      1       13      14      23      22
CQUAD4   11      1       14      11      21      23
CQUAD4   12      1       11      9       19      21
CQUAD4   13      1       9       8       17      19
CQUAD4   14      1       8       7       15      17
CQUAD4   15      1       16      18      27      25
CQUAD4   16      1       18      20      29      27
CQUAD4   17      1       20      22      31      29
CQUAD4   18      1       22      23      32      31
CQUAD4   19      1       23      21      30      32
CQUAD4   20      1       21      19      28      30
$ ... 349 like lines cut
CTRIA3   370     1       450     451     459
CQUAD4   371     1       451     452     460     459
CQUAD4   372     1       452     454     461     460
CQUAD4   373     1       454     455     462     461
CQUAD4   374     1       455     453     463     462
CQUAD4   375     1       464     465     468     467
CQUAD4   376     1       465     466     469     468
CQUAD4   377     1       467     468     471     470
CQUAD4   378     1       468     469     472     471
CQUAD4   379     1       473     474     476     477
CTRIA3   380     1       474     475     476
CQUAD4   381     1       478     479     482     481
CQUAD4   382     1       479     480     483     482
CQUAD4   383     1       481     482     485     484
CQUAD4   384     1       482     483     486     485
CQUAD4   385     1       487     488     491     490
CQUAD4   386     1       488     489     492     491
CQUAD4   387     1       490     491     494     493
CQUAD4   388     1       491     492     495     494
CQUAD4   389     1       493     494     497     496
CQUAD4   390     1       494     495     498     497
CQUAD4   391     1       496     497     500     499
CQUAD4   392     1       497     498     501     500
CQUAD4   393     1       502     503     507     506
CQUAD4   394     1       503     504     508     507
CQUAD4   395     1       504     505     509     508
CQUAD4   396     1       506     507     511     510
CQUAD4   397     1       507     508     512     511
CQUAD4   398     1       508     509     513     512
CQUAD4   399     1       510     511     515     514
CQUAD4   400     1       511     512     516     515
$ ... 241 like lines cut
CTRIA3   642     1       896     899     900
CQUAD4   643     1       896     900     901     897
CQUAD4   644     1       898     902     903     899
CQUAD4   645     1       899     903     904     900
CQUAD4   646     1       900     904     905     901
CQUAD4   647     1       902     906     907     903
CQUAD4   648     1       903     907     908     904
CQUAD4   649     1       904     908     909     905
CQUAD4   650     1       906     910     911     907
CQUAD4   651     1       907     911     912     908
CQUAD4   652     1       908     912     913     909
CQUAD4   653     1       910     914     915     911
CQUAD4   654     1       911     915     916     912
CQUAD4   655     1       912     916     917     913
CQUAD4   656     1       914     918     919     915
CQUAD4   657     1       915     919     920     916
CQUAD4   658     1       916     920     921     917
CQUAD4   659     1       922     929     931     923
CQUAD4   660     1       923     931     932     924
CQUAD4   661     1       924     932     933     925
CQUAD4   662     1       925     933     934     926
$ ... 4 like lines cut
CTRIA3   667     1       932     938     933
CQUAD4   668     1       933     938     939     934
CQUAD4   669     1       934     939     940     935
CQUAD4   670     1       935     940     941     930
CQUAD4   671     1       942     946     947     943
CQUAD4   672     1       943     947     948     944
CQUAD4   673     1       944     948     949     945
CQUAD4   674     1       946     950     951     947
CQUAD4   675     1       947     951     952     948
CQUAD4   676     1       948     952     953     949
CQUAD4   677     1       954     965     964     955
CQUAD4   678     1       955     964     963     956
CQUAD4   679     1       956     963     962     957
CQUAD4   680     1       957     962     961     958
CQUAD4   681     1       958     961     960     959
CQUAD4   682     1       965     971     970     964
CQUAD4   683     1       964     970     969     963
CQUAD4   684     1       963     969     966     962
CQUAD4   685     1       962     966     967     961
CQUAD4   686     1       961     967     968     960
CQUAD4   687     1       971     981     976     970
$ ... 45 like lines cut
CTRIA3   733     1       1034    1035    1038
CQUAD4   734     1       1035    1030    1039    1038
CQUAD4   735     1       1030    1031    1040    1039
CQUAD4   736     1       1041    1042    1049    1048
CQUAD4   737     1       1042    1043    1050    1049
CQUAD4   738     1       1043    1044    1046    1050
CQUAD4   739     1       1044    1045    1047    1046
CQUAD4   740     1       1048    1049    1052    1051
CTRIA3   741     1       1049    1050    1052
CQUAD4   742     1       1050    1046    1053    1052
CQUAD4   743     1       1046    1047    1054    1053
CQUAD4   744     1       1055    1056    1062    1059
CQUAD4   745     1       1056    1057    1061    1062
CQUAD4   746     1       1057    1058    1060    1061
CQUAD4   747     1       1059    1062    1064    1063
CTRIA3   748     1       1062    1061    1064
CQUAD4   749     1       1061    1060    1065    1064
CQUAD4   750     1       1066    1067    1074    1073
CQUAD4   751     1       1067    1068    1075    1074
CQUAD4   752     1       1068    1069    1076    1075
CQUAD4   753     1       1069    1070    1078    1076
CQUAD4   754     1       1070    1071    1079    1078
CQUAD4   755     1       1071    1072    1077    1079
CQUAD4   756     1       1073    1074    1081    1080
CQUAD4   757     1       1074    1075    1082    1081
CQUAD4   758     1       1075    1076    1084    1082
CQUAD4   759     1       1076    1078    1085    1084
CQUAD4   760     1       1078    1079    1086    1085
CQUAD4   761     1       1079    1077    1083    1086
CQUAD4   762     1       1080    1081    1088    1087
CQUAD4   763     1       1081    1082    1089    1088
CQUAD4   764     1       1082    1084    1091    1089
CQUAD4   765     1       1084    1085    1092    1091
CQUAD4   766     1       1085    1086    1093    1092
CQUAD4   767     1       1086    1083    1090    1093
CQUAD4   768     1       1087    1088    1095    1094
CQUAD4   769     1       1088    1089    1096    1095
CTRIA3   770     1       1089    1091    1096
CQUAD4   771     1       1091    1092    1097    1096
CQUAD4   772     1       1092    1093    1098    1097
CQUAD4   773     1       1093    1090    1099    1098
CQUAD4   774     1       1100    1101    1109    1108
CQUAD4   775     1       1101    1102    1110    1109
CQUAD4   776     1       1102    1103    1111    1110
CQUAD4   777     1       1103    1104    1113    1111
CQUAD4   778     1       1104    1105    1114    1113
CQUAD4   779     1       1105    1106    1115    1114
CQUAD4   780     1       1106    1107    1112    1115
CQUAD4   781     1       1108    1109    1117    1116
CQUAD4   782     1       1109    1110    1118    1117
CQUAD4   783     1       1110    1111    1119    1118
CQUAD4   784     1       1111    1113    1121    1119
CQUAD4   785     1       1113    1114    1122    1121
CQUAD4   786     1       1114    1115    1123    1122
CQUAD4   787     1       1115    1112    1120    1123
CQUAD4   788     1       1116    1117    1125    1124
CQUAD4   789     1       1117    1118    1126    1125
CQUAD4   790     1       1118    1119    1127    1126
$ ... 7 like lines cut
CTRIA3   798     1       1127    1129    1135
CQUAD4   799     1       1129    1130    1136    1135
CQUAD4   800     1       1130    1131    1137    1136
CQUAD4   801     1       1131    1128    1138    1137
CQUAD4   802     1       1139    1140    1148    1147
CQUAD4   803     1       1140    1141    1149    1148
CQUAD4   804     1       1141    1142    1150    1149
CQUAD4   805     1       1142    1143    1151    1150
CQUAD4   806     1       1143    1144    1152    1151
CQUAD4   807     1       1144    1145    1153    1152
CQUAD4   808     1       1145    1146    1154    1153
CQUAD4   809     1       1147    1148    1156    1155
CQUAD4   810     1       1148    1149    1157    1156
CQUAD4   811     1       1149    1150    1158    1157
CQUAD4   812     1       1150    1151    1159    1158
CQUAD4   813     1       1151    1152    1160    1159
CQUAD4   814     1       1152    1153    1161    1160
CQUAD4   815     1       1153    1154    1162    1161
CQUAD4   816     1       1155    1156    1164    1163
CQUAD4   817     1       1156    1157    1165    1164
CQUAD4   818     1       1157    1158    1166    1165
$ ... 12 like lines cut
CTRIA3   831     1       1180    1186    1185
CQUAD4   832     1       1180    1181    1187    1186
CQUAD4   833     1       1181    1182    1183    1187
CQUAD4   834     1       1184    1185    1190    1189
CQUAD4   835     1       1185    1186    1191    1190
CQUAD4   836     1       1186    1187    1192    1191
CQUAD4   837     1       1187    1183    1188    1192
CQUAD4   838     1       1189    1190    1195    1193
CQUAD4   839     1       1190    1191    1196    1195
CQUAD4   840     1       1191    1192    1197    1196
CQUAD4   841     1       1192    1188    1194    1197
CQUAD4   842     1       1193    1195    1199    1198
CQUAD4   843     1       1195    1196    1200    1199
CQUAD4   844     1       1196    1197    1201    1200
CQUAD4   845     1       1197    1194    1202    1201
CQUAD4   846     1       1203    1204    1207    1206
CQUAD4   847     1       1204    1205    1208    1207
CQUAD4   848     1       1206    1207    1210    1209
CQUAD4   849     1       1207    1208    1211    1210
CQUAD4   850     1       1209    1210    1213    1212
CQUAD4   851     1       1210    1211    1214    1213
$ ... 4 like lines cut
CTRIA3   856     1       1220    1227    1226
CQUAD4   857     1       1220    1221    1228    1227
CQUAD4   858     1       1221    1222    1225    1228
CQUAD4   859     1       1224    1223    1230    1229
CQUAD4   860     1       1223    1226    1231    1230
CQUAD4   861     1       1226    1227    1232    1231
CQUAD4   862     1       1227    1228    1233    1232
CQUAD4   863     1       1228    1225    1234    1233
CQUAD4   864     1       1235    1236    1239    1238
CQUAD4   865     1       1236    1237    1240    1239
CQUAD4   866     1       1238    1239    1242    1241
CQUAD4   867     1       1239    1240    1243    1242
CQUAD4   868     1       1244    1245    1250    1254
CQUAD4   869     1       1245    1246    1251    1250
CQUAD4   870     1       1246    1247    1252    1251
CQUAD4   871     1       1247    1248    1253    1252
CQUAD4   872     1       1248    1249    1255    1253
CQUAD4   873     1       1254    1250    1257    1256
CQUAD4   874     1       1250    1251    1258    1257
CQUAD4   875     1       1251    1252    1259    1258
CQUAD4   876     1       1252    1253    1260    1259
$ ... 86 like lines cut
CTRIA3   963     1       1400    1402    1405
CQUAD4   964     1       1402    1403    1406    1405
$ Referenced Material Records
$ Material Record : m1
$ Description of Material : Date: 20-Jan-15           Time: 20:33:19
MAT1     1      2.1+11  2.1+10  .3      7850.
$ Nodes of the Entire Model
GRID     1              272.9    0.      0.
GRID     2              272.9   3.82853  0.
GRID     3              272.9   7.6585  .0030323
GRID     4              272.9   11.4787 .217796
GRID     5              272.9   15.153  1.23045
GRID     6              272.9   18.1253 3.56545
GRID     7              272.9   19.5633 7.09998
GRID     8              270.335 19.654  4.38666
GRID     9              270.084 18.1769 2.30847
GRID     10             269.93  2.77138  0.
GRID     11             269.772 15.3587 .754087
GRID*    12                             269.714         5.28508
*       2.04809-5
GRID     13             269.579 8.53073 .0058902
GRID     14             269.587 11.9785 .130741
GRID     15             269.028 21.1218 7.1001
GRID*    16                             268.8           4.15977-14
*        0.
GRID     17             267.73  20.4866 4.12946
GRID     18             267.199 3.00761  0.
GRID     19             266.968 18.6161 1.76583
GRID*    20                             266.487         5.98801
*       2.66038-5
GRID     21             266.41  15.7356 .476856
GRID     22             266.166 9.18275 .0048585
GRID     23             266.136 12.4826 .0668471
GRID     24             265.033 22.3324 7.09999
GRID*    25                             264.7           1.51586-13
*        0.
GRID     26             264.241 21.4551 3.88426
GRID     27             263.645 3.21223  0.
GRID     28             263.46  19.2701 1.41429
GRID*    29                             262.959         6.41591
*       -8.99773-5
GRID     30             262.83  16.2334 .30533
GRID     31             262.593 9.67623 .0017202
GRID     32             262.538 12.9709 .0232586
GRID     33             260.955 23.2258 7.10012
GRID*    34                             260.6           3.04498-13
*        0.
GRID     35             260.4   22.3296 3.7077
GRID     36             259.812 3.35301  0.
GRID     37             259.703 19.9429 1.14998
GRID*    38                             259.233         6.69882
*       -1.54377-4
GRID     39             259.099 16.7451 .190646
GRID*    40                             258.895         10.0516
*       -7.17132-4
GRID*    41                             258.83          13.4094
*       8.8168-6
GRID     42             256.831 23.8752 7.10004
GRID*    43                             256.5           4.8544-13
*        0.
GRID     44             256.408 23.043  3.58712
GRID     45             255.879 3.4446   0.
GRID     46             255.823 20.5418 .929631
GRID*    47                             255.407         6.8901
*       -1.01972-4
GRID     48             255.29  17.2027 .109632
GRID     49             255.122 10.3351 -.001266
GRID     50             255.062 13.776  -.005372
GRID     51             252.682 24.34   7.10001
GRID*    52                             252.4           6.80236-13
*        0.
GRID     53             252.359 23.6015 3.50657
GRID     54             251.911 3.51349  0.
GRID     55             251.891 21.049  .740512
GRID*    56                             251.538         7.03261
*       -1.39238-5
GRID     57             251.448 17.5881 .0547043
GRID*    58                             251.311         10.554
*       -1.88796-4
GRID*    59                             251.262         14.0739
*       -6.94399-4
GRID     60             248.519 24.6677 7.09993
GRID*    61                             248.3           8.75836-13
*        0.
GRID     62             248.29  24.0455 3.45772
GRID     63             247.933 3.57729  0.
GRID     64             247.935 21.4655 .586855
GRID*    65                             247.654         7.15954
*       4.16069-5
GRID     66             247.59  17.9148 .0158016
GRID     67             247.484 10.7442 .0010217
GRID     68             247.448 14.3298 .0034796
GRID     69             244.349 24.8798 7.10019
GRID*    70                             244.2           1.05925-12
*        0.
GRID     71             244.21  24.3932 3.42917
GRID     72             243.953 3.64113  0.
GRID     73             243.965 21.8077 .477429
GRID*    74                             243.766         7.285
*       6.10994-5
GRID     75             243.723 18.2088 -.007744
GRID     76             243.652 10.9289 .0015604
GRID     77             243.627 14.5714 .0044661
GRID     78             240.175 24.9796 7.09996
GRID*    79                             240.1           1.21381-12
*        0.
GRID     80             240.11  24.6478 3.43465
GRID     81             239.974 3.70566  0.
GRID     82             239.982 22.1311 .438757
GRID*    83                             239.879         7.41234
*       4.96638-5
GRID     84             239.856 18.5071 -.011273
GRID     85             239.822 11.1176 .0012287
GRID     86             239.809 14.8186 .0028845
GRID*    87                             236.            1.31636-12
*        0.
GRID     88             236.    3.77075  0.
GRID     89             236.    7.54105  0.
GRID     90             236.    11.3118  0.
GRID     91             236.    15.082   0.
GRID     92             236.    18.8528 .0073432
GRID     93             236.    22.5729 .520599
GRID     94             236.    24.775  3.33898
GRID     95             236.    24.9699 7.09998
GRID     96             236.     0.      0.
GRID     97             236.    3.77075  0.
GRID     98             236.    7.54105  0.
GRID     99             236.    11.3118  0.
GRID     100            236.    15.082   0.
GRID     101            236.    18.8528 .0073432
GRID     102            236.    22.5729 .5206
GRID     103            236.    24.775  3.33899
GRID     104            236.    24.9699 7.09998
GRID*    105                            232.067         5.11898-13
*        0.
GRID     106            232.067 3.84899  0.
GRID     107            232.067 7.61488  0.
GRID     108            232.067 11.3942  0.
GRID     109            232.067 15.2041  0.
GRID     110            232.067 19.0131 .0052403
GRID     111            232.068 22.7221 .392267
GRID     112            232.068 24.8575 3.29025
GRID     113            232.067 24.9817 7.10002
GRID*    114                            228.133         1.9605-12
*        0.
GRID     115            228.133 3.88123  0.
GRID     116            228.133 7.65716  0.
GRID     117            228.133 11.4576  0.
GRID     118            228.133 15.3052  0.
GRID     119            228.134 19.1412 .0030028
GRID     120            228.135 22.8611 .294933
GRID     121            228.134 24.9177 3.24982
GRID     122            228.133 24.9908 7.10002
GRID*    123                            224.2           4.1712-12
*        0.
GRID     124            224.2   3.86751  0.
GRID     125            224.2   7.66847  0.
GRID     126            224.2   11.5021  0.
GRID     127            224.2   15.3853  0.
GRID     128            224.2   19.2371 .0010446
GRID     129            224.201 22.9916 .233512
GRID     130            224.201 24.959  3.21915
GRID     131            224.2   24.9971 7.10006
GRID*    132                            220.267         6.91545-12
*        0.
GRID     133            220.266 3.80804  0.
GRID     134            220.266 7.64924  0.
GRID     135            220.267 11.5279  0.
GRID     136            220.267 15.4443  0.
GRID*    137                            220.267         19.3011
*       -2.63227-4
GRID     138            220.267 23.1142 .211067
GRID     139            220.267 24.9841 3.19867
GRID     140            220.267 25.0007 7.10007
GRID*    141                            216.333         9.85597-12
*        0.
GRID     142            216.329 3.7274   0.
GRID     143            216.331 7.61526  0.
GRID     144            216.333 11.5424  0.
GRID     145            216.333 15.4861  0.
GRID*    146                            216.333         19.3377
*       -7.56602-4
GRID     147            216.334 23.2291 .221471
GRID     148            216.333 24.9961 3.18552
GRID     149            216.333 25.0019 7.10011
GRID*    150                            212.4           1.30701-11
*        0.
GRID     151            212.394 3.6957   0.
GRID     152            212.397 7.61126  0.
GRID     153            212.399 11.5664  0.
GRID     154            212.4   15.5228  0.
GRID*    155                            212.4           19.3599
*       -6.32498-4
GRID     156            212.4   23.3359 .242998
GRID     157            212.4   24.9994 3.1715
GRID     158            212.4   25.0015 7.10009
GRID*    159                            208.467         1.73038-11
*        0.
GRID     160            208.463 3.78804  0.
GRID     161            208.465 7.68488  0.
GRID     162            208.466 11.6227  0.
GRID     163            208.467 15.5674  0.
GRID*    164                            208.467         19.3822
*       -2.09949-4
GRID     165            208.467 23.4349 .25177
GRID     166            208.466 24.998  3.14843
GRID     167            208.467 25.0005 7.10009
GRID*    168                            204.533         2.39456-11
*        0.
GRID     169            204.53  4.0759   0.
GRID     170            204.532 7.88033  0.
GRID     171            204.533 11.7319  0.
GRID     172            204.533 15.6314  0.
GRID*    173                            204.533         19.4178
*       1.5113-4
GRID     174            204.533 23.5262 .223355
GRID     175            204.533 24.9956 3.10852
GRID     176            204.533 24.9997 7.10014
GRID*    177                            200.6           3.35808-11
*        0.
GRID     178            200.599 4.5255   0.
GRID     179            200.6   8.17377  0.
GRID     180            200.6   11.8819  0.
GRID     181            200.6   15.7091  0.
GRID*    182                            200.6           19.4661
*       2.73607-4
GRID     183            200.6   23.6029 .155274
GRID     184            200.6   24.9941 3.05495
GRID     185            200.6   24.9995 7.10009
GRID*    186                            196.667         4.48175-11
*        0.
GRID     187            196.672 4.99596  0.
GRID     188            196.669 8.47502  0.
GRID     189            196.667 12.0295  0.
GRID     190            196.667 15.7793  0.
GRID*    191                            196.667         19.513
*       2.05347-4
GRID     192            196.667 23.6527 .0729062
GRID     193            196.667 24.9938 3.00314
GRID     194            196.667 24.9996 7.10003
GRID*    195                            192.733         5.50119-11
*        0.
GRID     196            192.737 5.34249  0.
GRID     197            192.735 8.69358  0.
GRID     198            192.734 12.132   0.
GRID     199            192.733 15.8219  0.
GRID*    200                            192.733         19.5445
*       3.90922-5
GRID     201            192.734 23.6647 .0095421
GRID     202            192.734 24.9943 2.97019
GRID     203            192.733 24.9999 7.10006
GRID*    204                            188.8           6.09247-11
*        0.
GRID     205            188.773 5.43081  0.
GRID     206            188.789 8.74712  0.
GRID     207            188.798 12.1508  0.
GRID     208            188.8   15.8192  0.
GRID*    209                            188.8           19.5481
*       -9.61603-5
GRID*    210                            188.798         23.6297
*       -6.42319-4
GRID     211            188.798 24.9948 2.97273
GRID     212            188.8   25.0002 7.10019
GRID*    213                            184.866         6.08277-11
*        0.
GRID     214            184.814 5.21459  0.
GRID     215            184.846 8.60817  0.
GRID     216            184.862 12.0729  0.
GRID     217            184.866 15.7651  0.
GRID*    218                            184.867         19.5198
*       -1.44388-4
GRID     219            184.864 23.5444 .051885
GRID     220            184.863 24.9954 3.01642
GRID     221            184.867 25.0003 7.1002
GRID*    222                            180.933         5.38469-11
*        0.
GRID     223            180.885 4.69486  0.
GRID     224            180.914 8.27563  0.
GRID     225            180.929 11.8969  0.
GRID     226            180.933 15.6577  0.
GRID*    227                            180.934         19.4593
*       -1.05371-4
GRID     228            180.931 23.4071 .157719
GRID     229            180.93  24.9963 3.10119
GRID     230            180.933 25.0002 7.10002
GRID*    231                            177.            3.98195-11
*        0.
GRID     232            177.    3.87328  0.
GRID     233            177.    7.74625  0.
GRID     234            177.    11.6198  0.
GRID     235            177.    15.4928  0.
GRID     236            177.    19.3659  0.
GRID     237            177.    23.2153 .298089
GRID     238            177.    24.9984 3.22679
GRID     239            177.    25.     7.09998
GRID     240            177.     0.      0.
GRID     241            177.    3.87328  0.
GRID     242            177.    7.74625  0.
GRID     243            177.    11.6198  0.
GRID     244            177.    15.4928  0.
GRID     245            177.    19.3659  0.
GRID     246            177.    23.2153 .298092
GRID     247            177.    24.9984 3.22681
GRID     248            177.    25.     7.09998
GRID     249            172.786  0.      0.
GRID     250            172.786 3.88287  0.
GRID     251            172.786 7.78156  0.
$ ... 110 like lines cut
GRID*    362                            132.8           19.7121
*       1.05826-20
GRID*    363                            132.8           23.6546
*       3.75406-18
GRID     364            132.8   24.9974 3.15754
GRID     365            132.8   25.     7.09998
GRID*    366                            128.773         5.36419-14
*        0.
GRID     367            128.771 3.89299  0.
GRID     368            128.77  7.82286  0.
GRID     369            128.771 11.7345  0.
GRID*    370                            128.771         15.5598
*       2.76611-6
GRID*    371                            128.77          19.2124
*       1.38261-4
GRID     372            128.765 22.5299 .0143784
GRID     373            128.769 24.998  3.43544
GRID     374            128.773 24.9997 7.09997
GRID*    375                            124.746         1.93219-13
*        0.
GRID     376            124.742 3.8584   0.
GRID     377            124.741 7.77179  0.
GRID     378            124.741 11.6462  0.
GRID*    379                            124.741         15.3829
*       2.22185-6
GRID*    380                            124.739         18.9063
*       1.75897-4
GRID     381            124.734 22.1472 .0240384
GRID     382            124.74  24.9976 3.51301
GRID     383            124.746 24.9997 7.09998
GRID*    384                            120.718         3.93627-13
*        0.
GRID     385            120.718 24.9998 7.09999
GRID     386            120.714 3.83508  0.
GRID     387            120.711 7.73199  0.
GRID     388            120.71  11.5719  0.
GRID*    389                            120.71          15.2559
*       8.89098-7
GRID*    390                            120.708         18.7355
*       1.14361-4
GRID     391            120.706 22.0098 .0336835
GRID     392            120.712 24.9984 3.53573
GRID*    393                            116.691         6.37178-13
*        0.
GRID     394            116.685 3.81977  0.
GRID     395            116.684 25.0003 3.53769
GRID     396            116.691 25.0001 7.10005
GRID     397            116.681 7.70181  0.
GRID     398            116.68  11.5161  0.
GRID*    399                            116.679         15.1683
*       -4.18541-7
GRID*    400                            116.678         18.6392
*       -7.6315-5
GRID     401            116.678 21.9584 .037664
GRID*    402                            112.664         9.10182-13
*        0.
GRID     403            112.656 3.80871  0.
GRID     404            112.651 7.67703  0.
GRID     405            112.649 11.4721  0.
GRID     406            112.654 25.0008 3.5261
GRID     407            112.664 25.0006 7.1
GRID*    408                            112.648         15.1077
*       -1.41262-6
GRID*    409                            112.647         18.5793
*       -3.0068-4
GRID     410            112.649 21.9337 .0347611
GRID*    411                            108.636         1.19687-12
*        0.
GRID     412            108.628 3.79825  0.
GRID     413            108.623 7.65257  0.
GRID     414            108.62  11.4327  0.
GRID*    415                            108.618         15.0556
*       -1.70481-6
GRID*    416                            108.617         18.5286
*       -3.54308-4
GRID     417            108.619 24.9939 3.51073
GRID     418            108.636 25.0008 7.09999
GRID     419            108.615 21.9108 .0337557
GRID*    420                            104.609         1.47693-12
*        0.
GRID     421            104.601 3.78481  0.
GRID     422            104.596 7.62248  0.
GRID     423            104.593 11.3868  0.
GRID*    424                            104.591         14.9948
*       -6.96986-7
GRID*    425                            104.587         18.4694
*       -1.3563-4
GRID     426            104.582 24.9727 3.49603
GRID     427            104.609 25.0003 7.1
GRID     428            104.576 21.8795 .0463745
GRID*    429                            100.582         1.72638-12
*        0.
GRID     430            100.575 3.77829  0.
GRID     431            100.57  7.61129  0.
GRID     432            100.567 11.3671  0.
GRID*    433                            100.565         14.9058
*       2.04044-6
GRID*    434                            100.557         18.3649
*       3.94891-4
GRID     435            100.582 24.9989 7.1
GRID     436            100.535 21.8048 .0817135
GRID     437            100.54  24.9284 3.46303
GRID*    438                            96.5546         1.9236-12
*        0.
GRID     439            96.5497 3.84043  0.
GRID     440            96.5463 7.7226   0.
GRID     441            96.5441 11.3923  0.
GRID*    442                            96.5411         14.6976
*       3.91211-6
GRID     443            96.5283 18.1388 .0011135
GRID     444            96.5545 24.996  7.10003
GRID     445            96.4939 21.6846 .142998
GRID     446            96.4987 24.8513 3.39479
GRID*    447                            92.5273         2.04842-12
*        0.
GRID     448            92.5249 4.01687  0.
GRID     449            92.5231 7.97743  0.
GRID     450            92.5219 11.6024  0.
GRID*    451                            92.5187         14.2066
*       3.98985-7
GRID     452            92.506  17.7159 .0017169
GRID     453            92.5273 24.9913 7.10001
GRID     454            92.4717 21.4731 .219251
GRID     455            92.4746 24.7163 3.24398
GRID*    456                            88.5            2.08201-12
*        0.
GRID     457            88.5    4.25489  0.
GRID     458            88.5    8.51019  0.
GRID     459            88.5    12.7653  0.
GRID     460            88.5    17.0209 .001717
GRID     461            88.5    21.2535 .317751
GRID     462            88.5    24.4034 2.90656
GRID     463            88.5    24.9839 7.09999
GRID     464            14.75    0.      0.
GRID     465            14.75   2.79095 2.77302
GRID     466            14.75   2.32078 7.10002
GRID     467            11.0625  0.      0.
GRID     468            11.0625 1.39137 3.15481
GRID     469            11.0625 1.17901 7.10002
GRID     470            7.375    0.      0.
GRID     471            7.375    0.     3.55017
GRID     472            7.375   .03876727.09998
GRID     473            -5.      0.     14.4
GRID     474            -5.     4.16879 15.2834
GRID     475            -5.     7.16268 18.2
GRID     476            -5.     3.58085 18.2
$ ... 446 like lines cut
GRID*    923                            272.9           3.82853
*       6.03963-10
GRID     924            272.9   7.6585  .0030323
GRID     925            272.9   11.4787 .217796
GRID     926            272.9   15.153  1.23045
GRID     927            272.9   18.1253 3.56545
GRID     928            272.9   19.5633 7.09998
GRID*    929                            276.6           3.03326-7
*       4.07398-18
GRID     930            276.593 17.7973 7.10011
GRID     931            276.601 3.77741 .0072077
GRID     932            276.606 7.30498 .0860266
GRID     933            276.635 9.98863 .394377
GRID     934            276.72  13.2734 1.43588
GRID     935            276.771 16.109  3.76903
GRID*    936                            280.3           6.35207-7
*       3.25924-17
GRID     937            280.3   3.82921 .0146307
GRID     938            280.3   7.6495  .228052
GRID     939            280.3   11.3    1.33739
GRID     940            280.3   14.2097 3.76963
GRID     941            280.3   16.0643 7.09998
GRID     942            272.9   19.5633 7.09998
GRID     943            272.9   20.1383 10.7675
GRID     944            272.9   20.2386 14.4832
GRID     945            272.9   20.2886 18.2
GRID     946            276.593 17.7973 7.10012
GRID     947            276.599 18.3957 10.8994
GRID     948            276.605 18.5154 14.5669
GRID     949            276.612 18.6019 18.2
GRID     950            280.3   16.0643 7.09998
GRID     951            280.3   16.6288 10.7706
GRID     952            280.3   16.7972 14.4836
GRID     953            280.3   16.862  18.2
GRID*    954                            280.3           1.50413-6
*       1.82749-16
GRID     955            280.3   3.82994 .0146397
GRID     956            280.3   7.64855 .227917
GRID     957            280.3   11.3004 1.33762
GRID     958            280.3   14.2097 3.76963
GRID     959            280.3   16.0643 7.09997
GRID     960            283.323 13.9206 7.10068
GRID     961            283.515 12.247  4.03992
GRID     962            283.506 9.83415 1.75205
GRID     963            283.635 6.92793 .260135
GRID     964            283.782 3.51643 -.107678
GRID     965            284.035 -.006247-.107981
GRID     966            286.131 8.5329  2.38006
GRID     967            286.22  10.2766 4.3808
GRID     968            286.256 11.6555 7.10006
GRID     969            286.57  6.27518 1.02441
GRID     970            287.132 3.31857 .281245
GRID*    971                            287.771         1.06883-4
*       .0136752
GRID     972            287.879 7.61796 3.01236
GRID     973            288.499 8.36616 4.59551
GRID     974            288.869 5.92183 2.28946
GRID     975            289.032 9.20262 7.10003
GRID     976            290.194 3.37135 1.29993
GRID     977            290.482 6.17307 4.3392
GRID     978            291.545 6.48074 7.09982
GRID     979            292.592 3.5399  3.68539
GRID     980            293.654 3.43833 7.1001
GRID     981            291.5    0.     .25
GRID     982            294.692  0.     2.85533
GRID     983            295.     0.     7.09998
GRID     984            280.3   16.0643 7.09998
GRID     985            280.3   16.6288 10.7706
GRID     986            280.3   16.7972 14.4836
GRID     987            280.3   16.862  18.2
GRID     988            283.323 13.9206 7.10067
GRID     989            283.371 14.668  10.9098
GRID     990            283.462 14.7867 14.5721
GRID     991            283.621 14.8857 18.2
$ ... 26 like lines cut
GRID*    1018                           40.5625         1.00521-11
*       1.90091-15
GRID     1019           40.546  3.79269 .0704979
GRID     1020           40.5081 13.9412 4.49066
GRID     1021           40.4961 7.5745  .452664
GRID     1022           40.4547 11.0317 2.04261
GRID     1023           40.447  16.8771 7.1003
GRID     1024           36.8618 12.184  4.66848
GRID*    1025                           36.875          2.75273-11
*       1.21658-14
GRID     1026           36.8488 3.51461 .109608
GRID     1027           36.7872 14.845  7.10014
GRID     1028           36.7864 6.92936 .580797
GRID     1029           36.7581 9.81994 2.19198
GRID     1030           33.2058 10.514  4.53045
GRID     1031           33.2072 12.6748 7.09994
GRID*    1032                           33.1875         3.86235-11
*       3.07948-14
GRID     1033           33.1627 3.39561 .169943
GRID     1034           33.1173 6.52736 .753797
GRID     1035           33.1042 8.58711 2.04242
GRID*    1036                           29.5            3.64975-11
*       4.86634-14
GRID     1037           29.5    3.50714 .28249
GRID     1038           29.5    6.86363 1.27999
GRID     1039           29.5    9.01394 4.03241
GRID     1040           29.5    10.7391 7.10002
GRID     1041           29.5     0.      0.
GRID     1042           29.5    3.50714 .28249
GRID     1043           29.5    6.86363 1.27999
GRID     1044           29.5    9.01394 4.03241
GRID     1045           29.5    10.7391 7.10002
GRID     1046           25.8489 6.99874 4.02947
GRID     1047           25.8527 8.40042 7.10009
GRID     1048           25.815   0.      0.
GRID     1049           25.7878 3.17273 .407984
GRID     1050           25.7526 5.36555 1.323
GRID     1051           22.13    0.      0.
GRID     1052           22.13   3.55788 .672946
GRID     1053           22.13   5.55523 3.52559
GRID     1054           22.13   6.18602 7.10002
GRID     1055           22.13    0.      0.
GRID     1056           22.13   3.55788 .672947
$ ... 10 like lines cut
GRID*    1067                           59.             4.23067
*       9.1657-10
GRID     1068           59.     8.45981 .0030851
GRID     1069           59.     12.6761 .300978
GRID     1070           59.     16.727  1.45093
GRID     1071           59.     20.2823 3.72699
GRID     1072           59.     22.8054 7.09998
GRID     1073           55.3125  0.      0.
GRID     1074           55.3107 4.15169 .014777
GRID     1075           55.2997 8.20181 .0918497
GRID     1076           55.2631 12.1192 .518344
GRID     1077           55.2758 21.8961 7.10014
GRID     1078           55.2057 15.8852 1.7742
GRID     1079           55.1834 19.2274 3.987
GRID     1080           51.625   0.      0.
GRID     1081           51.6222 4.06388 .0242211
GRID     1082           51.6077 7.90172 .150681
GRID     1083           51.5858 20.8564 7.09989
GRID     1084           51.5639 11.4033 .650608
GRID     1085           51.4975 14.9105 1.95361
GRID     1086           51.4818 18.1194 4.15418
GRID     1087           47.9375  0.      0.
$ ... 14 like lines cut
GRID*    1102                           73.75           7.9692
*       3.29707-12
GRID     1103           73.75   11.9535 .017495
GRID     1104           73.75   15.9329 .206934
GRID     1105           73.75   19.7898 1.13843
GRID     1106           73.75   22.9475 3.50451
GRID     1107           73.75   24.5742 7.09998
GRID*    1108                           70.0625         1.25329-13
*        0.
GRID     1109           70.0625 3.94592  0.
GRID*    1110                           70.0624         7.81686
*       6.32884-5
GRID     1111           70.0596 11.6795 .0405079
GRID     1112           70.0584 24.1668 7.10002
GRID     1113           70.0404 15.5417 .328246
GRID     1114           69.9889 19.2522 1.37817
GRID     1115           69.9586 22.3694 3.67097
GRID*    1116                           66.375          4.37361-13
*        0.
GRID     1117           66.375  3.89954  0.
GRID*    1118                           66.3748         7.72117
*       9.25877-5
GRID     1119           66.3702 11.5728 .0696031
GRID     1120           66.3705 23.7328 7.1001
GRID     1121           66.346  15.1275 .431692
GRID     1122           66.2857 18.6412 1.55226
GRID     1123           66.2475 21.7503 3.77877
GRID*    1124                           62.6875         7.99315-13
*        0.
GRID     1125           62.6875 3.9771   0.
GRID*    1126                           62.6871         7.96039
*       4.65725-4
GRID     1127           62.6821 11.6883 .120585
GRID     1128           62.6844 23.2775 7.10004
GRID     1129           62.6625 14.3756 .456187
GRID     1130           62.6109 17.8199 1.58964
GRID     1131           62.5823 21.0564 3.7987
GRID*    1132                           59.             1.01995-12
*        0.
GRID     1133           59.     4.23067  0.
GRID     1134           59.     8.45982 .0030851
GRID     1135           59.     12.676  .300977
GRID     1136           59.     16.727  1.45094
GRID     1137           59.     20.2823 3.72699
GRID     1138           59.     22.8054 7.09998
GRID     1139           88.5     0.      0.
GRID     1140           88.5    4.25489  0.
GRID     1141           88.5    8.51019  0.
GRID*    1142                           88.5            12.7653
*       1.34665-11
GRID     1143           88.5    17.0209 .001717
GRID     1144           88.5    21.2535 .317748
GRID     1145           88.5    24.4034 2.90655
GRID     1146           88.5    24.9839 7.09999
GRID*    1147                           84.8125         4.03437-10
*        0.
GRID     1148           84.8125 4.19396  0.
GRID     1149           84.8125 8.37797  0.
GRID     1150           84.8124 12.5573 .0063152
GRID     1151           84.8124 16.7445 .0585967
GRID     1152           84.8124 20.8898 .528667
GRID     1153           84.8124 24.0655 3.06149
GRID     1154           84.8123 24.8917 7.10002
GRID*    1155                           81.125          1.16351-9
*        0.
GRID     1156           81.125  4.12812  0.
GRID     1157           81.1249 8.24454  0.
GRID     1158           81.1249 12.3545 .0112483
GRID     1159           81.1248 16.4724 .111879
GRID     1160           81.1248 20.5262 .73673
GRID     1161           81.1247 23.7105 3.21255
GRID     1162           81.1247 24.793  7.10001
GRID*    1163                           77.4375         1.74827-9
*        0.
GRID     1164           77.4375 4.0582   0.
GRID     1165           77.4374 8.10885  0.
GRID     1166           77.4374 12.1544 .0149415
GRID     1167           77.4374 16.2028 .161457
GRID     1168           77.4373 20.1606 .940719
GRID     1169           77.4373 23.3384 3.36042
GRID     1170           77.4372 24.6874 7.10003
GRID*    1171                           73.75           1.81704-9
*        0.
GRID     1172           73.75   3.98453  0.
GRID     1173           73.75   7.9692   0.
GRID     1174           73.75   11.9535 .017495
GRID     1175           73.75   15.9329 .206934
GRID     1176           73.75   19.7898 1.13842
GRID     1177           73.75   22.9475 3.5045
GRID     1178           73.75   24.5742 7.09998
GRID     1179           44.25   18.6247 7.09997
GRID     1180           44.25   21.3614 10.361
GRID     1181           44.25   23.4816 14.0042
GRID     1182           44.25   24.1063 18.2
GRID     1183           40.5618 23.5221 18.2
GRID     1184           40.447  16.8771 7.10031
GRID     1185           40.4259 19.3631 9.41929
GRID     1186           40.4122 21.0622 11.3368
GRID     1187           40.4163 22.8871 14.4128
GRID     1188           36.8749 22.9345 18.2001
GRID     1189           36.7872 14.8451 7.10015
GRID     1190           36.7233 17.6852 9.25588
GRID     1191           36.6781 20.1561 11.5346
$ ... 215 like lines cut
$ Loads for Load Case : Default
$ Referenced Coordinate Frames
ENDDATA e1ca8d67
