$ MSC.Nastran input file created on June      11, 2020 at 09:41:23 by
$ Patran 2019
$ Direct Text Input for Nastran System Cell Section
$ Direct Text Input for File Management Section
$ Direct Text Input for Executive Control
$ Normal Modes Analysis, Database
SOL 103
CEND
$ Direct Text Input for Global Case Control Data
TITLE = MSC.Nastran job created on 01-Jun-20 at 21:51:07
ECHO = NONE
$ Using Nastran default values for RESVEC
SUBCASE 1
   SUBTITLE=Default
   METHOD = 1
   VECTOR(SORT1,REAL)=ALL
   SPCFORCES(SORT1,REAL)=ALL
   STRESS(SORT1,REAL,VONMISES,BILIN)=ALL
$ Direct Text Input for this Subcase
BEGIN BULK
$ Direct Text Input for Bulk Data
MDLPRM   HDF5    0
PARAM   PRTMAXIM YES
EIGRL    1                       11      0                       MASS
$ Elements and Element Properties for region : p1
PBARL    1       1               BOX
        1.389   .695    .109    .109
$ Pset: "p1" will be imported as: "pbarl.1"
CBAR     1       1       1       2       0.      0.     1.
CBAR     2       1       2       3       0.      0.     1.
CBAR     3       1       3       4       0.      0.     1.
CBAR     4       1       4       5       0.      0.     1.
CBAR     5       1       5       6       0.      0.     1.
CBAR     6       1       6       7       0.      0.     1.
CBAR     7       1       7       8       0.      0.     1.
CBAR     8       1       8       9       0.      0.     1.
CBAR     9       1       9       10      0.      0.     1.
CBAR     10      1       10      11      0.      0.     1.
CBAR     11      1       11      12      0.      0.     1.
CBAR     12      1       12      13      0.      0.     1.
CBAR     13      1       13      14      0.      0.     1.
CBAR     14      1       14      15      0.      0.     1.
CBAR     15      1       15      16      0.      0.     1.
CBAR     16      1       16      17      0.      0.     1.
CBAR     17      1       17      18      0.      0.     1.
CBAR     18      1       18      19      0.      0.     1.
CBAR     19      1       19      20      0.      0.     1.
CBAR     20      1       20      21      0.      0.     1.
$ ... 80 like lines cut
$ Referenced Material Records
$ Material Record : m1
$ Description of Material : Date: 01-Jun-20           Time: 21:46:17
MAT1     1      2.06+11         .3      7850.
$ Nodes of the Entire Model
GRID     1              -15.     0.      0.
GRID*    2                              -14.699999809265 0.
*        0.
GRID*    3                              -14.399999618530 0.
*        0.
GRID*    4                              -14.100000381469 0.
*        0.
GRID*    5                              -13.800000190734 0.
*        0.
GRID     6              -13.5    0.      0.
GRID*    7                              -13.199999809265 0.
*        0.
GRID*    8                              -12.899999618530 0.
*        0.
GRID*    9                              -12.600000381469 0.
*        0.
GRID*    10                             -12.300000190734 0.
*        0.
GRID     11             -12.     0.      0.
GRID*    12                             -11.699999809265 0.
*        0.
GRID*    13                             -11.399999618530 0.
*        0.
GRID*    14                             -11.100000381469 0.
*        0.
GRID*    15                             -10.800000190734 0.
*        0.
GRID     16             -10.5    0.      0.
GRID*    17                             -10.199999809265 0.
*        0.
GRID*    18                             -9.8999996185302 0.
*        0.
GRID*    19                             -9.5999994277954 0.
*        0.
GRID*    20                             -9.3000001907348 0.
*        0.
GRID     21             -9.      0.      0.
GRID*    22                             -8.6999998092651 0.
*        0.
GRID*    23                             -8.3999996185302 0.
*        0.
GRID*    24                             -8.0999994277954 0.
*        0.
GRID*    25                             -7.8000001907348 0.
*        0.
GRID     26             -7.5     0.      0.
GRID*    27                             -7.2000002861023 0.
*        0.
GRID*    28                             -6.8999996185302 0.
*        0.
GRID*    29                             -6.6000008583068 0.
*        0.
GRID*    30                             -6.3000001907348 0.
*        0.
GRID*    31                             -5.9999995231628 0.
*        0.
GRID*    32                             -5.6999988555908 0.
*        0.
GRID*    33                             -5.4000000953674 0.
*        0.
GRID*    34                             -5.0999984741210 0.
*        0.
GRID*    35                             -4.7999997138977 0.
*        0.
GRID*    36                             -4.4999990463256 0.
*        0.
GRID*    37                             -4.1999988555908 0.
*        0.
GRID*    38                             -3.8999979496002 0.
*        0.
GRID*    39                             -3.5999991893768 0.
*        0.
GRID*    40                             -3.2999987602233 0.
*        0.
GRID*    41                             -2.9999980926513 0.
*        0.
GRID*    42                             -2.6999974250793 0.
*        0.
GRID*    43                             -2.3999986648559 0.
*        0.
GRID*    44                             -2.0999970436096 0.
*        0.
GRID*    45                             -1.7999982833862 0.
*        0.
GRID*    46                             -1.4999977350235 0.
*        0.
$ ... 108 like lines cut
GRID     101            15.      0.      0.
$ Loads for Load Case : Default
$ Referenced Coordinate Frames
ENDDATA 0b0d76d2
