$ MSC.Nastran input file created on December  08, 2021 at 14:47:54 by
$ Patran 2019
$ Direct Text Input for Nastran System Cell Section
$ Direct Text Input for File Management Section
$ Direct Text Input for Executive Control
$ Linear Static Analysis, Database
SOL 101
CEND
$ Direct Text Input for Global Case Control Data
TITLE = MSC.Nastran job created on 01-Dec-21 at 10:04:46
ECHO = NONE
SUBCASE 1
$ Subcase name : Default
   SUBTITLE=Default
   DISPLACEMENT(SORT1,REAL)=ALL
   SPCFORCES(SORT1,REAL)=ALL
   STRESS(SORT1,REAL,VONMISES,BILIN)=ALL
BEGIN BULK
$ Direct Text Input for Bulk Data
MDLPRM   HDF5    0
PARAM   PRTMAXIM YES
$ Elements and Element Properties for region : p1
PSHELL   1       1      .03      1               1
$ Pset: "p1" will be imported as: "pshell.1"
CQUAD4   1       1       446     269     257     434
CQUAD4   2       1       269     136     128     257
CQUAD4   3       1       136     50      43      128
CQUAD4   4       1       50      7       8       43
CQUAD4   5       1       434     257     250     428
CQUAD4   6       1       257     128     122     250
CQUAD4   7       1       128     43      42      122
CQUAD4   8       1       43      8       9       42
CQUAD4   9       1       428     250     247     424
CQUAD4   10      1       250     122     123     247
CQUAD4   11      1       122     42      39      123
CQUAD4   12      1       42      9       10      39
CQUAD4   13      1       424     247     243     416
CQUAD4   14      1       247     123     121     243
CQUAD4   15      1       123     39      37      121
CQUAD4   16      1       39      10      11      37
CQUAD4   17      1       416     243     242     412
CQUAD4   18      1       243     121     119     242
CQUAD4   19      1       121     37      33      119
CQUAD4   20      1       37      11      12      33
$ ... 476 like lines cut
CTRIA3   497     1       631     627     632
CQUAD4   498     1       627     628     633     632
CQUAD4   499     1       628     629     634     633
CQUAD4   500     1       629     630     635     634
CQUAD4   501     1       446     434     637     636
CQUAD4   502     1       434     428     638     637
CQUAD4   503     1       428     424     639     638
CQUAD4   504     1       424     416     640     639
CQUAD4   505     1       416     412     641     640
CQUAD4   506     1       412     413     642     641
CQUAD4   507     1       413     414     643     642
CQUAD4   508     1       414     410     644     643
CQUAD4   509     1       410     407     645     644
CQUAD4   510     1       407     404     646     645
CQUAD4   511     1       404     400     647     646
CQUAD4   512     1       400     396     648     647
CQUAD4   513     1       396     394     649     648
CQUAD4   514     1       394     390     650     649
CQUAD4   515     1       390     388     651     650
CQUAD4   516     1       388     382     652     651
CQUAD4   517     1       382     383     653     652
$ ... 121 like lines cut
CTRIA3   639     1       778     912     911
CQUAD4   640     1       778     779     913     912
CQUAD4   641     1       779     780     914     913
CQUAD4   642     1       780     781     915     914
CQUAD4   643     1       781     782     916     915
CQUAD4   644     1       782     783     917     916
CQUAD4   645     1       783     784     918     917
CQUAD4   646     1       784     785     919     918
CQUAD4   647     1       785     786     920     919
CQUAD4   648     1       786     787     921     920
CQUAD4   649     1       787     788     922     921
CQUAD4   650     1       788     789     923     922
CQUAD4   651     1       789     790     924     923
CQUAD4   652     1       790     791     925     924
CQUAD4   653     1       791     792     926     925
CQUAD4   654     1       792     793     927     926
CQUAD4   655     1       793     794     928     927
CQUAD4   656     1       794     795     929     928
CQUAD4   657     1       795     796     930     929
CQUAD4   658     1       796     797     931     930
CQUAD4   659     1       797     798     932     931
$ ... 101 like lines cut
CTRIA3   761     1       903     1033    1032
CQUAD4   762     1       903     904     1034    1033
CQUAD4   763     1       904     905     1035    1034
CQUAD4   764     1       905     906     1036    1035
CQUAD4   765     1       906     907     1037    1036
CQUAD4   766     1       907     908     1038    1037
CQUAD4   767     1       908     909     1039    1038
CQUAD4   768     1       909     910     1040    1039
CQUAD4   769     1       910     911     1041    1040
CQUAD4   770     1       911     912     1042    1041
CQUAD4   771     1       912     913     1043    1042
CQUAD4   772     1       913     914     1044    1043
CQUAD4   773     1       914     915     1045    1044
CQUAD4   774     1       915     916     1046    1045
CQUAD4   775     1       916     917     1047    1046
CQUAD4   776     1       917     918     1048    1047
CQUAD4   777     1       918     919     1049    1048
CQUAD4   778     1       919     920     1050    1049
CQUAD4   779     1       920     921     1051    1050
CQUAD4   780     1       921     922     1052    1051
CQUAD4   781     1       922     923     1053    1052
$ ... 500 like lines cut
CTRIA3   1282    1       1421    1551    1550
CTRIA3   1283    1       5       6       1551
CQUAD4   1284    1       766     1422    1552    765
CQUAD4   1285    1       1422    1423    1553    1552
CQUAD4   1286    1       1423    1424    1554    1553
CQUAD4   1287    1       1424    1425    1555    1554
CQUAD4   1288    1       1425    1426    1556    1555
CQUAD4   1289    1       1426    1427    1557    1556
CQUAD4   1290    1       1427    1428    1558    1557
CQUAD4   1291    1       1428    1429    1559    1558
CQUAD4   1292    1       1429    1430    1560    1559
CQUAD4   1293    1       1430    1431    1561    1560
CQUAD4   1294    1       1431    1432    1562    1561
CQUAD4   1295    1       1432    1433    1563    1562
CQUAD4   1296    1       1433    1434    1564    1563
CQUAD4   1297    1       1434    1435    1565    1564
CQUAD4   1298    1       1435    1436    1566    1565
CQUAD4   1299    1       1436    1437    1567    1566
CQUAD4   1300    1       1437    1438    1568    1567
CQUAD4   1301    1       1438    1439    1569    1568
CQUAD4   1302    1       1439    1440    1570    1569
CQUAD4   1303    1       1440    1441    1571    1570
$ ... 173 like lines cut
CTRIA3   1477    1       1615    1616    700
CQUAD4   1478    1       1616    1617    699     700
CQUAD4   1479    1       1617    1618    698     699
CQUAD4   1480    1       1618    1619    697     698
CQUAD4   1481    1       1619    1620    696     697
CQUAD4   1482    1       1620    1621    695     696
CQUAD4   1483    1       1621    1622    694     695
CQUAD4   1484    1       1622    1623    693     694
CQUAD4   1485    1       1623    1624    692     693
CQUAD4   1486    1       1624    1625    691     692
CQUAD4   1487    1       1625    1626    690     691
CQUAD4   1488    1       1626    1627    689     690
CQUAD4   1489    1       1627    1628    688     689
CQUAD4   1490    1       1628    1629    687     688
CQUAD4   1491    1       1629    1630    686     687
CQUAD4   1492    1       1630    1631    685     686
CQUAD4   1493    1       1631    1632    684     685
CQUAD4   1494    1       1632    1633    683     684
CQUAD4   1495    1       1633    1634    682     683
CQUAD4   1496    1       1634    1635    681     682
CQUAD4   1497    1       1635    1636    680     681
$ ... 44 like lines cut
CTRIA3   1542    1       911     777     778
CTRIA3   1543    1       1032    902     903
CTRIA3   1544    1       1550    1420    1421
CTRIA3   1545    1       1551    1421    5
CTRIA3   1546    1       446     6       1715
CQUAD4   1547    1       446     1715    1716    269
CQUAD4   1548    1       269     1716    1717    136
CQUAD4   1549    1       1718    1714    7       50
CQUAD4   1550    1       50      136     1717    1718
CQUAD4   1551    1       1719    1720    1727    1726
CQUAD4   1552    1       1720    1721    1728    1727
CQUAD4   1553    1       1721    1722    1729    1728
CQUAD4   1554    1       1722    1723    1730    1729
CQUAD4   1555    1       1723    1724    1731    1730
CQUAD4   1556    1       1724    1725    1732    1731
CQUAD4   1557    1       1726    1727    1733    1734
CQUAD4   1558    1       1727    1728    1735    1733
CQUAD4   1559    1       1728    1729    1736    1735
CQUAD4   1560    1       1729    1730    1737    1736
CQUAD4   1561    1       1730    1731    1738    1737
CQUAD4   1562    1       1731    1732    1739    1738
CQUAD4   1563    1       1734    1733    1740    1742
CQUAD4   1564    1       1733    1735    1741    1740
CQUAD4   1565    1       1735    1736    1743    1741
CQUAD4   1566    1       1736    1737    1744    1743
$ ... 13 like lines cut
$ Referenced Material Records
$ Material Record : m1
$ Description of Material : Date: 01-Dec-21           Time: 10:18:49
MAT1     1      2.1+11          .3      7850.
$ Nodes of the Entire Model
GRID*    1                              -1.70199406147006.38505029678345
*       9.11199951171875
GRID*    2                              -1.35264277458196.20017719268799
*       8.25717735290527
GRID*    3                              -1.00101065635686.05314540863037
*       7.39679527282715
GRID*    4                              -.647682487964635.93066883087158
*       6.53227615356445
GRID*    5                              -.301744461059575.71268892288208
*       5.68582773208618
GRID*    6                              -.009181697852915.1926646232605
*       4.96996593475342
GRID*    7                              .206892192363739-7.75035858-7
*       4.44126653671265
GRID*    8                              1.21066510677338-8.231472-8
*       4.45280981063843
GRID*    9                              2.213478565216063.79999193-7
*       4.42276239395142
GRID*    10                             3.215239763259896.83919609-7
*       4.35828495025635
GRID*    11                             4.214347839355478.91880404-7
*       4.26652908325195
GRID*    12                             5.211406230926511.046179136-6
*       4.15502548217773
GRID*    13                             6.206974506378171.17271793-6
*       4.0303373336792
GRID*    14                             7.201412200927731.294495178-6
*       3.89791297912598
GRID*    15                             8.195441246032721.432571707-6
*       3.7619948387146
GRID*    16                             9.188972473144531.592582294-6
*       3.62265634536743
GRID*    17                             10.18204879760741.772561859-6
*       3.47898650169373
GRID*    18                             11.17430877685551.967547632-6
*       3.33058452606201
GRID*    19                             12.16553592681892.171840379-6
*       3.17573738098145
GRID*    20                             13.155291557312 2.381107606-6
*       3.01177024841309
$ ... 3476 like lines cut
$ Loads for Load Case : Default
$ Referenced Coordinate Frames
ENDDATA 8015d880
