$ NASTRAN input file created by the Patran 2008r2 input file translator
$ on July      16, 2015 at 16:34:46.
$ Direct Text Input for Nastran System Cell Section
$ Direct Text Input for File Management Section
$ Direct Text Input for Executive Control
$ Linear Static Analysis, Database
SOL 101
CEND
$ Direct Text Input for Global Case Control Data
TITLE = MSC.Nastran job created on 09-Jul-14 at 10:16:34
ECHO = NONE
SUBCASE 1
$ Subcase name : Default
   SUBTITLE=Default
   DISPLACEMENT(SORT1,REAL)=ALL
   SPCFORCES(SORT1,REAL)=ALL
   STRESS(SORT1,REAL,VONMISES,BILIN)=ALL
BEGIN BULK
$ Direct Text Input for Bulk Data
PARAM    POST    0
PARAM   PRTMAXIM YES
$ Elements and Element Properties for region : p1
PSHELL   1       1      .003     1               1
$ Pset: "p1" will be imported as: "pshell.1"
CQUAD4   1       1       1       9       11      2
CQUAD4   2       1       2       11      12      3
CQUAD4   3       1       3       12      13      4
CTRIA3   4       1       4       13      15
CQUAD4   5       1       4       15      14      5
CQUAD4   6       1       5       14      8       6
CQUAD4   7       1       6       8       10      7
CQUAD4   8       1       9       16      17      11
CQUAD4   9       1       11      17      18      12
CQUAD4   10      1       12      18      19      13
CQUAD4   11      1       13      19      20      15
CQUAD4   12      1       15      20      21      14
CQUAD4   13      1       14      21      22      8
CQUAD4   14      1       8       22      23      10
CQUAD4   15      1       16      24      27      17
CQUAD4   16      1       17      27      28      18
CQUAD4   17      1       18      28      29      19
CQUAD4   18      1       19      29      31      20
CQUAD4   19      1       20      31      30      21
CQUAD4   20      1       21      30      25      22
CQUAD4   21      1       22      25      26      23
CQUAD4   22      1       24      32      34      27
CQUAD4   23      1       27      34      35      28
CQUAD4   24      1       28      35      36      29
$ ... 7 like lines cut
CTRIA3   32      1       36      43      37
CQUAD4   33      1       37      43      44      38
CQUAD4   34      1       38      44      45      39
CQUAD4   35      1       39      45      46      33
CQUAD4   36      1       40      47      49      41
CQUAD4   37      1       41      49      48      42
CQUAD4   38      1       42      48      50      43
CQUAD4   39      1       43      50      51      44
CQUAD4   40      1       44      51      52      45
CQUAD4   41      1       45      52      58      46
CQUAD4   42      1       47      53      54      49
CQUAD4   43      1       49      54      55      48
CQUAD4   44      1       48      55      56      50
CQUAD4   45      1       50      56      57      51
CQUAD4   46      1       51      57      58      52
CQUAD4   47      1       59      69      75      60
CQUAD4   48      1       60      75      76      61
CQUAD4   49      1       61      76      74      62
CQUAD4   50      1       62      74      72      63
CQUAD4   51      1       63      72      70      64
CQUAD4   52      1       64      70      71      65
$ ... 12 like lines cut
CTRIA3   65      1       79      88      86
CQUAD4   66      1       86      88      89      87
CQUAD4   67      1       87      89      90      85
CQUAD4   68      1       85      90      91      83
CQUAD4   69      1       83      91      92      81
CQUAD4   70      1       81      92      93      80
CQUAD4   71      1       80      93      94      82
CQUAD4   72      1       82      94      95      84
CQUAD4   73      1       59      99      101     96
CQUAD4   74      1       96      101     103     97
CQUAD4   75      1       97      103     102     98
CQUAD4   76      1       98      102     100     23
CQUAD4   77      1       59      60      104     99
CQUAD4   78      1       99      104     105     101
CQUAD4   79      1       101     105     107     103
CQUAD4   80      1       103     107     108     102
CQUAD4   81      1       102     108     106     100
CQUAD4   82      1       60      61      109     104
CQUAD4   83      1       104     109     110     105
CQUAD4   84      1       105     110     111     107
CQUAD4   85      1       107     111     112     108
$ ... 47 like lines cut
CTRIA3   133     1       156     158     153
CQUAD4   134     1       153     158     159     154
CQUAD4   135     1       154     159     160     155
CQUAD4   136     1       156     157     162     158
CQUAD4   137     1       158     162     163     159
CQUAD4   138     1       159     163     164     160
CQUAD4   139     1       157     161     165     162
CQUAD4   140     1       162     165     167     163
CQUAD4   141     1       163     167     168     164
CQUAD4   142     1       161     166     169     165
CQUAD4   143     1       165     169     170     167
CQUAD4   144     1       167     170     171     168
CQUAD4   145     1       166     172     173     169
CQUAD4   146     1       169     173     174     170
CQUAD4   147     1       170     174     175     171
CQUAD4   148     1       1       180     182     176
CQUAD4   149     1       176     182     184     177
CQUAD4   150     1       177     184     183     178
CQUAD4   151     1       178     183     181     179
CQUAD4   152     1       180     188     189     182
CQUAD4   153     1       182     189     190     184
$ ... 12 like lines cut
CTRIA3   166     1       195     197     196
CQUAD4   167     1       201     202     204     199
CQUAD4   168     1       199     204     203     200
CQUAD4   169     1       200     203     205     198
CQUAD4   170     1       198     205     206     197
CQUAD4   171     1       197     206     207     196
CQUAD4   172     1       202     210     208     204
CQUAD4   173     1       204     208     209     203
CQUAD4   174     1       203     209     211     205
CQUAD4   175     1       205     211     212     206
CQUAD4   176     1       206     212     217     207
CQUAD4   177     1       210     213     214     208
CQUAD4   178     1       208     214     215     209
CQUAD4   179     1       209     215     216     211
CQUAD4   180     1       211     216     217     212
CQUAD4   181     1       217     232     230     218
CQUAD4   182     1       218     230     228     219
CQUAD4   183     1       219     228     225     220
CTRIA3   184     1       220     225     226
CQUAD4   185     1       220     226     227     221
CQUAD4   186     1       221     227     229     222
CQUAD4   187     1       222     229     231     223
CQUAD4   188     1       223     231     233     224
CQUAD4   189     1       232     238     235     230
CQUAD4   190     1       230     235     236     228
CQUAD4   191     1       228     236     239     225
CQUAD4   192     1       225     239     241     226
CQUAD4   193     1       226     241     242     227
CQUAD4   194     1       227     242     240     229
CQUAD4   195     1       229     240     237     231
CQUAD4   196     1       231     237     243     233
CQUAD4   197     1       217     216     244     232
CQUAD4   198     1       232     244     246     238
CQUAD4   199     1       238     246     248     235
CQUAD4   200     1       235     248     250     236
CQUAD4   201     1       236     250     251     239
CQUAD4   202     1       239     251     253     241
CQUAD4   203     1       241     253     255     242
CQUAD4   204     1       242     255     252     240
$ ... 41 like lines cut
CTRIA3   246     1       291     10      23
CQUAD4   247     1       46      292     293     33
CQUAD4   248     1       33      293     294     26
CTRIA3   249     1       26      294     295
CQUAD4   250     1       296     297     312     307
CQUAD4   251     1       297     298     313     312
CQUAD4   252     1       298     299     304     313
CQUAD4   253     1       299     300     305     304
CTRIA3   254     1       300     306     305
CQUAD4   255     1       300     301     308     306
CQUAD4   256     1       301     302     309     308
CQUAD4   257     1       302     303     314     309
CQUAD4   258     1       303     146     310     314
CQUAD4   259     1       146     152     311     310
CQUAD4   260     1       307     312     316     315
CQUAD4   261     1       312     313     317     316
CQUAD4   262     1       313     304     318     317
CQUAD4   263     1       304     305     319     318
CQUAD4   264     1       305     306     285     319
CQUAD4   265     1       306     308     286     285
CQUAD4   266     1       308     309     287     286
CQUAD4   267     1       309     314     288     287
CQUAD4   268     1       314     310     289     288
CQUAD4   269     1       310     311     290     289
CQUAD4   270     1       23      320     322     321
CQUAD4   271     1       320     296     307     322
CQUAD4   272     1       321     322     323     213
CQUAD4   273     1       322     307     315     323
CQUAD4   274     1       58      328     327     324
$ ... 12 like lines cut
CTRIA3   287     1       344     351     352
CQUAD4   288     1       339     337     353     354
CQUAD4   289     1       340     339     354     355
CQUAD4   290     1       341     340     355     356
CQUAD4   291     1       342     341     356     357
CQUAD4   292     1       343     342     357     358
CQUAD4   293     1       345     338     343     358
CQUAD4   294     1       346     345     358     357
CQUAD4   295     1       347     346     357     356
CQUAD4   296     1       348     347     356     359
CQUAD4   297     1       349     348     359     360
CQUAD4   298     1       350     349     360     361
CQUAD4   299     1       351     350     361     354
CQUAD4   300     1       353     352     351     354
CQUAD4   301     1       355     354     361     360
CQUAD4   302     1       356     355     360     359
CTRIA3   303     1       366     365     372
CTRIA3   304     1       371     372     365
CQUAD4   305     1       368     363     366     372
CQUAD4   306     1       369     367     368     370
CQUAD4   307     1       369     370     364     362
CQUAD4   308     1       371     370     368     372
CQUAD4   309     1       371     365     364     370
CQUAD4   310     1       375     373     388     389
CQUAD4   311     1       376     375     389     390
CQUAD4   312     1       377     376     390     391
CQUAD4   313     1       379     374     377     391
CQUAD4   314     1       383     378     381     392
CQUAD4   315     1       384     383     392     393
CQUAD4   316     1       385     384     393     394
CQUAD4   317     1       386     382     385     394
CQUAD4   318     1       387     386     394     395
CQUAD4   319     1       389     388     387     395
CQUAD4   320     1       380     379     391     396
CQUAD4   321     1       392     381     380     396
CQUAD4   322     1       393     392     396     397
CQUAD4   323     1       395     394     393     397
CQUAD4   324     1       390     389     395     397
CQUAD4   325     1       390     397     396     391
CTRIA3   326     1       373     375     405
CQUAD4   327     1       377     374     404     408
CQUAD4   328     1       376     377     408     409
CQUAD4   329     1       375     376     409     413
CQUAD4   330     1       406     405     375     413
CQUAD4   331     1       402     399     401     410
CQUAD4   332     1       403     402     410     411
CQUAD4   333     1       408     404     403     411
CQUAD4   334     1       400     398     407     412
CQUAD4   335     1       410     401     400     412
CQUAD4   336     1       411     410     412     413
CQUAD4   337     1       409     408     411     413
CQUAD4   338     1       406     413     412     407
CQUAD4   339     1       418     415     417     424
CQUAD4   340     1       419     418     424     425
CQUAD4   341     1       420     419     425     426
CQUAD4   342     1       401     399     420     426
CQUAD4   343     1       421     398     400     427
CQUAD4   344     1       422     421     427     428
CQUAD4   345     1       423     422     428     429
CQUAD4   346     1       416     414     423     429
$ ... 100 like lines cut
CTRIA3   447     1       558     568     560
CQUAD4   448     1       566     542     544     569
CQUAD4   449     1       567     566     569     570
CQUAD4   450     1       568     567     570     571
CQUAD4   451     1       560     568     571     576
CQUAD4   452     1       561     560     576     573
CQUAD4   453     1       562     561     573     572
CQUAD4   454     1       563     559     562     572
CQUAD4   455     1       545     543     565     574
CQUAD4   456     1       569     544     545     574
CQUAD4   457     1       574     565     564     575
CQUAD4   458     1       570     569     574     575
CQUAD4   459     1       572     571     570     575
CQUAD4   460     1       563     572     575     564
CQUAD4   461     1       572     573     576     571
CQUAD4   462     1       590     586     589     593
CQUAD4   463     1       591     590     593     594
CQUAD4   464     1       592     591     594     595
CQUAD4   465     1       579     577     592     595
CQUAD4   466     1       580     579     595     596
CQUAD4   467     1       581     580     596     597
$ ... 10 like lines cut
CTRIA3   478     1       586     610     612
CQUAD4   479     1       607     603     606     618
CQUAD4   480     1       608     607     618     619
CQUAD4   481     1       609     608     619     624
CQUAD4   482     1       610     609     624     620
CQUAD4   483     1       613     612     610     620
CQUAD4   484     1       604     602     617     621
CQUAD4   485     1       605     604     621     619
CQUAD4   486     1       618     606     605     619
CQUAD4   487     1       615     611     614     622
CQUAD4   488     1       616     615     622     623
CQUAD4   489     1       621     617     616     623
CQUAD4   490     1       622     614     613     620
CQUAD4   491     1       619     621     623     624
CQUAD4   492     1       622     620     624     623
CTRIA3   493     1       611     632     614
CQUAD4   494     1       626     582     587     633
CQUAD4   495     1       627     626     633     634
CQUAD4   496     1       628     627     634     635
CQUAD4   497     1       629     625     628     635
CQUAD4   498     1       630     629     635     636
CQUAD4   499     1       631     630     636     637
CQUAD4   500     1       632     631     637     640
CQUAD4   501     1       613     614     632     640
CQUAD4   502     1       589     586     612     638
CQUAD4   503     1       588     589     638     639
CQUAD4   504     1       633     587     588     639
CQUAD4   505     1       638     612     613     640
CQUAD4   506     1       639     638     640     641
CQUAD4   507     1       634     633     639     641
CQUAD4   508     1       641     640     637     636
CQUAD4   509     1       641     636     635     634
CQUAD4   510     1       645     577     579     648
CQUAD4   511     1       646     645     648     649
CQUAD4   512     1       647     646     649     650
CQUAD4   513     1       385     382     647     650
$ ... 12 like lines cut
CTRIA3   526     1       558     670     671
CQUAD4   527     1       663     658     661     677
CQUAD4   528     1       664     663     677     678
CQUAD4   529     1       665     664     678     679
CQUAD4   530     1       666     665     679     680
CQUAD4   531     1       667     666     680     681
CQUAD4   532     1       668     662     667     681
CQUAD4   533     1       669     668     681     682
CQUAD4   534     1       670     669     682     683
CQUAD4   535     1       671     670     683     672
CQUAD4   536     1       673     672     683     684
CQUAD4   537     1       674     673     684     685
CQUAD4   538     1       675     674     685     686
CQUAD4   539     1       676     675     686     687
CQUAD4   540     1       659     657     676     687
CQUAD4   541     1       660     659     687     688
CQUAD4   542     1       677     661     660     688
CQUAD4   543     1       678     677     688     689
CQUAD4   544     1       679     678     689     690
CQUAD4   545     1       680     679     690     691
CQUAD4   546     1       682     681     680     691
$ ... 58 like lines cut
CTRIA3   605     1       224     748     223
CQUAD4   606     1       743     217     218     749
CQUAD4   607     1       737     724     743     749
CQUAD4   608     1       736     737     749     750
CQUAD4   609     1       735     736     750     754
CQUAD4   610     1       734     735     754     751
CQUAD4   611     1       747     732     734     751
CQUAD4   612     1       748     747     751     752
CQUAD4   613     1       222     223     748     752
CQUAD4   614     1       752     751     754     753
CQUAD4   615     1       752     753     221     222
CQUAD4   616     1       220     221     753     754
CQUAD4   617     1       218     219     750     749
CQUAD4   618     1       750     219     220     754
CTRIA3   619     1       757     758     759
CQUAD4   620     1       368     367     760     761
CQUAD4   621     1       756     363     368     761
CQUAD4   622     1       758     755     756     761
CQUAD4   623     1       758     761     760     759
CTRIA3   624     1       755     758     763
CQUAD4   625     1       770     768     769     774
CQUAD4   626     1       771     770     774     775
CQUAD4   627     1       772     771     775     776
CQUAD4   628     1       773     772     776     777
CQUAD4   629     1       758     757     773     777
CQUAD4   630     1       774     769     762     767
CQUAD4   631     1       764     763     758     777
CQUAD4   632     1       765     764     777     776
CQUAD4   633     1       766     765     776     775
CQUAD4   634     1       766     775     774     767
CTRIA3   635     1       710     780     715
CQUAD4   636     1       369     362     778     781
CQUAD4   637     1       779     369     781     782
CQUAD4   638     1       760     779     782     783
CQUAD4   639     1       759     760     783     784
CQUAD4   640     1       780     757     759     784
CQUAD4   641     1       781     778     708     711
CQUAD4   642     1       714     715     780     784
CQUAD4   643     1       713     714     784     783
CQUAD4   644     1       712     713     783     782
CQUAD4   645     1       712     782     781     711
CQUAD4   646     1       756     755     786     787
CQUAD4   647     1       756     787     785     363
CQUAD4   648     1       789     786     755     763
CQUAD4   649     1       790     789     763     764
CQUAD4   650     1       791     790     764     765
CQUAD4   651     1       792     791     765     766
CQUAD4   652     1       793     792     766     767
CQUAD4   653     1       793     767     762     788
CTRIA3   654     1       786     795     787
CQUAD4   655     1       785     787     795     794
CTRIA3   656     1       795     786     797
CQUAD4   657     1       793     788     796     802
CQUAD4   658     1       792     793     802     801
CQUAD4   659     1       791     792     801     800
CQUAD4   660     1       790     791     800     799
CQUAD4   661     1       789     790     799     798
CQUAD4   662     1       789     798     797     786
CTRIA3   663     1       344     803     804
CQUAD4   664     1       794     795     804     803
CTRIA3   665     1       344     804     351
CQUAD4   666     1       805     338     345     806
CQUAD4   667     1       802     796     805     806
CQUAD4   668     1       801     802     806     807
CQUAD4   669     1       800     801     807     808
CQUAD4   670     1       799     800     808     809
CQUAD4   671     1       798     799     809     810
CQUAD4   672     1       797     798     810     811
CQUAD4   673     1       804     795     797     811
CQUAD4   674     1       350     351     804     811
CQUAD4   675     1       349     350     811     810
CQUAD4   676     1       348     349     810     809
CQUAD4   677     1       347     348     809     808
CQUAD4   678     1       345     346     807     806
CQUAD4   679     1       346     347     808     807
CTRIA3   680     1       577     813     592
CQUAD4   681     1       607     821     820     603
CQUAD4   682     1       608     822     821     607
CQUAD4   683     1       609     823     822     608
CQUAD4   684     1       610     824     823     609
CQUAD4   685     1       590     824     610     586
CQUAD4   686     1       818     825     817     812
CQUAD4   687     1       819     826     825     818
CQUAD4   688     1       821     826     819     820
CQUAD4   689     1       591     827     824     590
CQUAD4   690     1       592     828     827     591
CQUAD4   691     1       814     828     592     813
CQUAD4   692     1       815     829     828     814
CQUAD4   693     1       816     830     829     815
CQUAD4   694     1       825     830     816     817
CQUAD4   695     1       822     831     826     821
CQUAD4   696     1       823     832     831     822
CQUAD4   697     1       827     832     823     824
CQUAD4   698     1       831     830     825     826
CQUAD4   699     1       832     829     830     831
CQUAD4   700     1       832     827     828     829
$ ... 24 like lines cut
CTRIA3   725     1       373     866     388
CQUAD4   726     1       861     857     860     867
CQUAD4   727     1       862     861     867     868
CQUAD4   728     1       863     862     868     869
CQUAD4   729     1       864     863     869     870
CQUAD4   730     1       865     864     870     871
CQUAD4   731     1       866     865     871     881
CQUAD4   732     1       387     388     866     881
CQUAD4   733     1       858     833     837     872
CQUAD4   734     1       859     858     872     873
CQUAD4   735     1       867     860     859     873
CQUAD4   736     1       841     382     386     874
CQUAD4   737     1       840     841     874     875
CQUAD4   738     1       839     840     875     876
CQUAD4   739     1       838     839     876     877
CQUAD4   740     1       872     837     838     877
CQUAD4   741     1       874     386     387     881
CQUAD4   742     1       875     874     881     878
CQUAD4   743     1       876     875     878     879
CQUAD4   744     1       877     876     879     880
CQUAD4   745     1       873     872     877     880
$ ... 4 like lines cut
CTRIA3   750     1       398     892     407
CQUAD4   751     1       886     882     885     894
CQUAD4   752     1       887     886     894     895
CQUAD4   753     1       888     887     895     896
CQUAD4   754     1       889     888     896     897
CQUAD4   755     1       890     889     897     898
CQUAD4   756     1       891     890     898     899
CQUAD4   757     1       892     891     899     907
CQUAD4   758     1       893     407     892     907
CQUAD4   759     1       866     373     405     900
CQUAD4   760     1       865     866     900     901
CQUAD4   761     1       864     865     901     902
CQUAD4   762     1       863     864     902     903
CQUAD4   763     1       862     863     903     904
CQUAD4   764     1       861     862     904     905
CQUAD4   765     1       883     857     861     905
CQUAD4   766     1       884     883     905     906
CQUAD4   767     1       894     885     884     906
CQUAD4   768     1       900     405     893     907
CQUAD4   769     1       901     900     907     908
CQUAD4   770     1       902     901     908     909
$ ... 72 like lines cut
CTRIA3   843     1       430     453     954
CQUAD4   844     1       980     976     979     988
CQUAD4   845     1       981     980     988     989
CQUAD4   846     1       982     981     989     990
CQUAD4   847     1       983     982     990     991
CQUAD4   848     1       984     983     991     992
CQUAD4   849     1       985     984     992     993
CQUAD4   850     1       986     985     993     994
CQUAD4   851     1       987     986     994     995
CQUAD4   852     1       455     446     987     995
CQUAD4   853     1       977     944     948     996
CQUAD4   854     1       978     977     996     997
CQUAD4   855     1       988     979     978     997
CQUAD4   856     1       454     455     995     998
CQUAD4   857     1       453     454     998     999
CQUAD4   858     1       954     453     999     1000
CQUAD4   859     1       953     954     1000    1001
CQUAD4   860     1       952     953     1001    1002
CQUAD4   861     1       951     952     1002    1003
CQUAD4   862     1       950     951     1003    1004
CQUAD4   863     1       949     950     1004    1005
$ ... 33 like lines cut
CTRIA3   897     1       462     479     1021
CQUAD4   898     1       483     470     1042    1043
CQUAD4   899     1       482     483     1043    1044
CQUAD4   900     1       481     482     1044    1045
CQUAD4   901     1       480     481     1045    1046
CQUAD4   902     1       479     480     1046    1047
CQUAD4   903     1       1021    479     1047    1048
CQUAD4   904     1       1020    1021    1048    1049
CQUAD4   905     1       1019    1020    1049    1050
CQUAD4   906     1       1018    1019    1050    1051
CQUAD4   907     1       1017    1018    1051    1052
CQUAD4   908     1       1016    1017    1052    1053
CQUAD4   909     1       1015    1016    1053    1054
CQUAD4   910     1       1014    1015    1054    1055
CQUAD4   911     1       1031    1012    1014    1055
CQUAD4   912     1       1036    1030    1035    1056
CQUAD4   913     1       1037    1036    1056    1057
CQUAD4   914     1       1038    1037    1057    1058
CQUAD4   915     1       1039    1038    1058    1059
CQUAD4   916     1       1040    1039    1059    1060
CQUAD4   917     1       1041    1040    1060    1061
$ ... 96 like lines cut
CTRIA3   1014    1       510     533     1124
CQUAD4   1015    1       1157    1150    1156    1158
CQUAD4   1016    1       534     1157    1158    1159
CQUAD4   1017    1       533     534     1159    1160
CQUAD4   1018    1       1124    533     1160    1161
CQUAD4   1019    1       1123    1124    1161    1162
CQUAD4   1020    1       1122    1123    1162    1163
CQUAD4   1021    1       1121    1122    1163    1173
CQUAD4   1022    1       1120    1121    1173    1172
CQUAD4   1023    1       1119    1120    1172    1164
CQUAD4   1024    1       1118    1119    1164    1165
CQUAD4   1025    1       1147    1114    1118    1165
CQUAD4   1026    1       1151    1146    1149    1166
CQUAD4   1027    1       1152    1151    1166    1167
CQUAD4   1028    1       1153    1152    1167    1168
CQUAD4   1029    1       1154    1153    1168    1169
CQUAD4   1030    1       1155    1154    1169    1170
CQUAD4   1031    1       1158    1156    1155    1170
CQUAD4   1032    1       1148    1147    1165    1171
CQUAD4   1033    1       1166    1149    1148    1171
CQUAD4   1034    1       1167    1166    1171    1172
$ ... 72 like lines cut
CTRIA3   1107    1       757     780     773
CQUAD4   1108    1       1238    768     770     1239
CQUAD4   1109    1       1231    1229    1238    1239
CQUAD4   1110    1       1232    1231    1239    1240
CQUAD4   1111    1       1233    1232    1240    1241
CQUAD4   1112    1       780     1230    1233    1241
CQUAD4   1113    1       772     773     780     1241
CQUAD4   1114    1       771     772     1241    1240
CQUAD4   1115    1       771     1240    1239    770
$ Referenced Material Records
$ Material Record : m1
$ Description of Material : Date: 09-Jul-14           Time: 10:15:45
MAT1     1      2.06+11         .3      7850.
$ Nodes of the Entire Model
GRID     1              279.435  0.      0.
GRID     2              279.435 1.282   1.464
GRID     3              279.435 2.265   3.163
GRID     4              279.435 2.995   4.985
GRID     5              279.435 3.266   6.922
GRID     6              279.435 2.653   8.759
GRID     7              279.435 1.773   10.5
GRID     8              281.218 2.023   9.44
GRID     9              281.227  0.      0.
GRID     10             281.227 1.422   11.25
GRID     11             281.229 1.199   1.439
GRID     12             281.23  2.167   3.091
GRID     13             281.231 2.848   4.756
GRID     14             281.231 2.979   7.853
GRID     15             281.235 3.143   6.089
GRID     16             283.018  0.      0.
GRID     17             283.018 1.133   1.44
GRID     18             283.018 2.114   3.102
GRID     19             283.018 2.836   4.892
GRID     20             283.018 3.138   6.794
$ ... 1221 like lines cut
$ Loads for Load Case : Default
$ Referenced Coordinate Frames
ENDDATA 245d608b
